* File: decoder.pex.netlist.pex
* Created: Wed May  4 02:42:52 2022
* Program "Calibre xRC"
* Version "v2013.2_18.13"
* Nominal Temperature: 27C
* Circuit Temperature: 27C
* 
.subckt PM_DECODER%VDD! 10 24 38 40 54 72 154 166 178 180 192 206 208 222 240
+ 322 334 346 348 360 374 376 390 408 490 502 514 516 528 542 544 558 576 658
+ 670 682 696 710 726 744 826 838 842 856 870 884 902 986 998 1018 1032 1046
+ 1062 1080 1162 1174 1178 1188 1192 1206 1220 1238 1322 1334 2009 2011 2013
+ 2015 2017 2019 2021 2023 2025 2027 2029 2031 2033 2035 2037 2039 2041 2043
+ 2045 2047 2049 2051 2053 2055 2057 2059 2061 2063 2065 2067 2069 2071 2073
+ 2075 2077 2079 2081 2083 2085 2087 2089 2091 2093 2095 2097 2099 2101 2103
+ 2105 2107 2109 2111 2113 2115 2117 2119 2121 2123 2130 2140 2152 2177 2178
+ 2186 2195 2205 2217 2242 2243 2251 2260 2270 2273 2284 2309 2310 2318 2327
+ 2337 2349 2374 2375 2383 2436 2437 2544 2545 2602 2603 2610 2611 2618 2619
+ 2626 2627
c2079 2095 0 1.80763e-19
c2080 2093 0 1.80763e-19
c2081 2067 0 1.80763e-19
c2082 2053 0 1.80763e-19
c2083 2039 0 1.80763e-19
c2084 2025 0 1.80763e-19
c2085 2009 0 4.42275e-20
c2086 1080 0 8.59189e-20
c2087 576 0 8.59189e-20
c2088 408 0 8.59189e-20
c2089 240 0 8.59189e-20
c2090 72 0 8.59189e-20
r2091 2665 2666 0.0770357
r2092 2659 2660 0.0770357
r2093 2645 2646 0.0770357
r2094 2639 2640 0.0770357
r2095 2579 2670 0.0753595
r2096 2565 2666 0.0753595
r2097 2557 2665 0.0753595
r2098 2550 2663 0.0753595
r2099 2545 2662 0.00912264
r2100 2544 2663 0.00912264
r2101 2537 2662 0.0753595
r2102 2529 2660 0.0753595
r2103 2522 2659 0.0753595
r2104 2507 2655 0.0753595
r2105 2471 2650 0.0753595
r2106 2457 2646 0.0753595
r2107 2449 2645 0.0753595
r2108 2442 2643 0.0753595
r2109 2437 2642 0.00912264
r2110 2436 2643 0.00912264
r2111 2429 2642 0.0753595
r2112 2421 2640 0.0753595
r2113 2414 2639 0.0753595
r2114 2399 2635 0.0753595
r2115 2383 2384 0.123663
r2116 2374 2375 0.123663
r2117 2360 2630 0.0753595
r2118 2353 2628 0.0753595
r2119 2350 2627 0.00666941
r2120 2349 2628 0.00912264
r2121 2341 2627 0.0565869
r2122 2338 2626 0.00666941
r2123 2337 2627 0.00666941
r2124 2329 2626 0.0565869
r2125 2327 2626 0.00666941
r2126 2327 2328 0.123663
r2127 2318 2319 0.123663
r2128 2309 2310 0.123663
r2129 2295 2622 0.0753595
r2130 2288 2620 0.0753595
r2131 2285 2619 0.00666941
r2132 2284 2620 0.00912264
r2133 2276 2619 0.0565869
r2134 2271 2618 0.00666941
r2135 2271 2273 0.0273679
r2136 2270 2619 0.00666941
r2137 2262 2618 0.0565869
r2138 2260 2618 0.00666941
r2139 2260 2261 0.123663
r2140 2251 2252 0.123663
r2141 2242 2243 0.123663
r2142 2228 2614 0.0753595
r2143 2221 2612 0.0753595
r2144 2218 2611 0.00666941
r2145 2217 2612 0.00912264
r2146 2209 2611 0.0565869
r2147 2206 2610 0.00666941
r2148 2205 2611 0.00666941
r2149 2197 2610 0.0565869
r2150 2195 2610 0.00666941
r2151 2195 2196 0.123663
r2152 2186 2187 0.123663
r2153 2177 2178 0.123663
r2154 2163 2606 0.0753595
r2155 2156 2604 0.0753595
r2156 2153 2603 0.00666941
r2157 2152 2604 0.00912264
r2158 2144 2603 0.0565869
r2159 2141 2602 0.00666941
r2160 2140 2603 0.00666941
r2161 2132 2602 0.0565869
r2162 2130 2602 0.00666941
r2163 2130 2131 0.123663
r2164 1342 2103 10
r2165 1340 1342 0.7517
r2166 1340 2103 10
r2167 1338 1340 0.7517
r2168 1338 2103 10
r2169 1336 1338 0.7517
r2170 1336 2103 10
r2171 1334 1336 0.501133
r2172 1334 2522 0.507397
r2173 1334 2103 30
r2174 1332 2662 0.0182453
r2175 1332 2660 0.0101363
r2176 1332 2009 15
r2177 1330 2107 10
r2178 1328 1330 0.7517
r2179 1328 2107 10
r2180 1326 1328 0.7517
r2181 1326 2107 10
r2182 1324 1326 0.7517
r2183 1324 2107 10
r2184 1322 1324 0.501133
r2185 1322 2537 0.507397
r2186 1322 2107 30
r2187 1252 2544 0.00304088
r2188 1252 2009 10
r2189 1250 1252 0.0810902
r2190 1250 2009 30
r2191 1248 2111 10
r2192 1246 1248 0.58388
r2193 1246 2111 10
r2194 1244 1246 0.584852
r2195 1244 2111 10
r2196 1242 1244 0.582909
r2197 1242 2111 10
r2198 1240 1242 0.58388
r2199 1240 2111 10
r2200 1238 1240 0.389577
r2201 1238 2557 0.868213
r2202 1238 2111 30
r2203 1234 2670 0.0405451
r2204 1234 2009 10
r2205 1232 2666 0.0202725
r2206 1232 2009 30
r2207 1230 2117 10
r2208 1228 1230 0.58388
r2209 1228 2117 10
r2210 1226 1228 0.584852
r2211 1226 2117 10
r2212 1224 1226 0.582909
r2213 1224 2117 10
r2214 1222 1224 0.58388
r2215 1222 2117 10
r2216 1220 1222 0.389577
r2217 1220 2579 0.868213
r2218 1220 2117 30
r2219 1216 2655 0.0891992
r2220 1216 2500 0.0753595
r2221 1216 2009 15
r2222 1214 2097 10
r2223 1212 1214 0.752952
r2224 1212 2097 10
r2225 1210 1212 0.752952
r2226 1210 2097 10
r2227 1208 1210 0.752952
r2228 1208 2097 10
r2229 1206 1208 0.502386
r2230 1206 2500 1.62117
r2231 1206 2097 15
r2232 1202 2515 0.0753595
r2233 1202 2009 15
r2234 1200 2101 10
r2235 1198 1200 0.752952
r2236 1198 2101 10
r2237 1196 1198 0.752952
r2238 1196 2101 10
r2239 1194 1196 0.752952
r2240 1194 2101 10
r2241 1192 1194 0.502386
r2242 1192 2515 1.62117
r2243 1192 2101 15
r2244 1188 2594 0.0753595
r2245 1188 2009 15
r2246 1186 2121 10
r2247 1184 1186 0.752952
r2248 1184 2121 10
r2249 1182 1184 0.752952
r2250 1182 2121 10
r2251 1180 1182 0.752952
r2252 1180 2121 10
r2253 1178 1180 0.502386
r2254 1178 2594 1.62117
r2255 1178 2121 15
r2256 1174 2113 10
r2257 1172 1174 0.7517
r2258 1172 2113 10
r2259 1170 1172 0.7517
r2260 1170 2113 10
r2261 1168 1170 0.7517
r2262 1168 2113 10
r2263 1166 2565 0.507397
r2264 1166 1168 0.501133
r2265 1166 2113 30
r2266 1164 2665 0.0101363
r2267 1164 2663 0.0182453
r2268 1164 2009 15
r2269 1162 2109 10
r2270 1160 1162 0.7517
r2271 1160 2109 10
r2272 1158 1160 0.7517
r2273 1158 2109 10
r2274 1156 1158 0.7517
r2275 1156 2109 10
r2276 1154 2550 0.507397
r2277 1154 1156 0.501133
r2278 1154 2109 30
r2279 1084 2545 0.00304088
r2280 1084 2009 10
r2281 1082 1250 0.00405451
r2282 1082 1084 0.0810902
r2283 1082 2009 30
r2284 1080 2105 10
r2285 1078 1080 0.58388
r2286 1078 2105 10
r2287 1076 1078 0.584852
r2288 1076 2105 10
r2289 1074 1076 0.582909
r2290 1074 2105 10
r2291 1072 1074 0.58388
r2292 1072 2105 10
r2293 1070 2529 0.868213
r2294 1070 1072 0.389577
r2295 1070 2105 30
r2296 1066 1202 0.0121635
r2297 1066 2655 0.0405451
r2298 1066 2009 10
r2299 1064 2659 0.0202725
r2300 1064 1202 0.0689266
r2301 1064 2009 30
r2302 1062 2099 10
r2303 1060 1062 0.58388
r2304 1060 2099 10
r2305 1058 1060 0.584852
r2306 1058 2099 10
r2307 1056 1058 0.582909
r2308 1056 2099 10
r2309 1054 1056 0.58388
r2310 1054 2099 10
r2311 1052 2507 0.868213
r2312 1052 1054 0.389577
r2313 1052 2099 30
r2314 1048 1188 0.0527086
r2315 1048 2670 0.0891992
r2316 1048 2587 0.0753595
r2317 1048 2009 15
r2318 1046 2119 10
r2319 1044 1046 0.752952
r2320 1044 2119 10
r2321 1042 1044 0.752952
r2322 1042 2119 10
r2323 1040 1042 0.752952
r2324 1040 2119 10
r2325 1038 2587 1.62117
r2326 1038 1040 0.502386
r2327 1038 2119 15
r2328 1034 1234 0.0121635
r2329 1034 1232 0.0689266
r2330 1034 2572 0.0753595
r2331 1034 2009 15
r2332 1032 2115 10
r2333 1030 1032 0.752952
r2334 1030 2115 10
r2335 1028 1030 0.752952
r2336 1028 2115 10
r2337 1026 1028 0.752952
r2338 1026 2115 10
r2339 1024 2572 1.62117
r2340 1024 1026 0.502386
r2341 1024 2115 15
r2342 1020 1216 0.0527086
r2343 1020 2493 0.0753595
r2344 1020 2009 15
r2345 1018 2095 10
r2346 1016 1018 0.752952
r2347 1016 2095 10
r2348 1014 1016 0.752952
r2349 1014 2095 10
r2350 1012 1014 0.752952
r2351 1012 2095 10
r2352 1010 2493 1.62117
r2353 1010 1012 0.502386
r2354 1010 2095 15
r2355 1006 2075 10
r2356 1004 1006 0.7517
r2357 1004 2075 10
r2358 1002 1004 0.7517
r2359 1002 2075 10
r2360 1000 1002 0.7517
r2361 1000 2075 10
r2362 998 1000 0.501133
r2363 998 2414 0.507397
r2364 998 2075 30
r2365 996 2642 0.0182453
r2366 996 2640 0.0101363
r2367 996 2009 15
r2368 994 2079 10
r2369 992 994 0.7517
r2370 992 2079 10
r2371 990 992 0.7517
r2372 990 2079 10
r2373 988 990 0.7517
r2374 988 2079 10
r2375 986 988 0.501133
r2376 986 2429 0.507397
r2377 986 2079 30
r2378 916 2436 0.00304088
r2379 916 2009 10
r2380 914 916 0.0810902
r2381 914 2009 30
r2382 912 2083 10
r2383 910 912 0.58388
r2384 910 2083 10
r2385 908 910 0.584852
r2386 908 2083 10
r2387 906 908 0.582909
r2388 906 2083 10
r2389 904 906 0.58388
r2390 904 2083 10
r2391 902 904 0.389577
r2392 902 2449 0.868213
r2393 902 2083 30
r2394 898 2650 0.0405451
r2395 898 2009 10
r2396 896 2646 0.0202725
r2397 896 2009 30
r2398 894 2089 10
r2399 892 894 0.58388
r2400 892 2089 10
r2401 890 892 0.584852
r2402 890 2089 10
r2403 888 890 0.582909
r2404 888 2089 10
r2405 886 888 0.58388
r2406 886 2089 10
r2407 884 886 0.389577
r2408 884 2471 0.868213
r2409 884 2089 30
r2410 880 2635 0.0891992
r2411 880 2392 0.0753595
r2412 880 2009 15
r2413 878 2069 10
r2414 876 878 0.752952
r2415 876 2069 10
r2416 874 876 0.752952
r2417 874 2069 10
r2418 872 874 0.752952
r2419 872 2069 10
r2420 870 872 0.502386
r2421 870 2392 1.62117
r2422 870 2069 15
r2423 866 2407 0.0753595
r2424 866 2009 15
r2425 864 2073 10
r2426 862 864 0.752952
r2427 862 2073 10
r2428 860 862 0.752952
r2429 860 2073 10
r2430 858 860 0.752952
r2431 858 2073 10
r2432 856 858 0.502386
r2433 856 2407 1.62117
r2434 856 2073 15
r2435 852 1020 0.0891992
r2436 852 2486 0.0753595
r2437 852 2009 15
r2438 850 2093 10
r2439 848 850 0.752952
r2440 848 2093 10
r2441 846 848 0.752952
r2442 846 2093 10
r2443 844 846 0.752952
r2444 844 2093 10
r2445 842 844 0.502386
r2446 842 2486 1.62117
r2447 842 2093 15
r2448 838 2085 10
r2449 836 838 0.7517
r2450 836 2085 10
r2451 834 836 0.7517
r2452 834 2085 10
r2453 832 834 0.7517
r2454 832 2085 10
r2455 830 2457 0.507397
r2456 830 832 0.501133
r2457 830 2085 30
r2458 828 2645 0.0101363
r2459 828 2643 0.0182453
r2460 828 2009 15
r2461 826 2081 10
r2462 824 826 0.7517
r2463 824 2081 10
r2464 822 824 0.7517
r2465 822 2081 10
r2466 820 822 0.7517
r2467 820 2081 10
r2468 818 2442 0.507397
r2469 818 820 0.501133
r2470 818 2081 30
r2471 748 2437 0.00304088
r2472 748 2009 10
r2473 746 914 0.00405451
r2474 746 748 0.0810902
r2475 746 2009 30
r2476 744 2077 10
r2477 742 744 0.58388
r2478 742 2077 10
r2479 740 742 0.584852
r2480 740 2077 10
r2481 738 740 0.582909
r2482 738 2077 10
r2483 736 738 0.58388
r2484 736 2077 10
r2485 734 2421 0.868213
r2486 734 736 0.389577
r2487 734 2077 30
r2488 730 866 0.0121635
r2489 730 2635 0.0405451
r2490 730 2009 10
r2491 728 2639 0.0202725
r2492 728 866 0.0689266
r2493 728 2009 30
r2494 726 2071 10
r2495 724 726 0.58388
r2496 724 2071 10
r2497 722 724 0.584852
r2498 722 2071 10
r2499 720 722 0.582909
r2500 720 2071 10
r2501 718 720 0.58388
r2502 718 2071 10
r2503 716 2399 0.868213
r2504 716 718 0.389577
r2505 716 2071 30
r2506 712 852 0.0527086
r2507 712 2650 0.0891992
r2508 712 2479 0.0753595
r2509 712 2009 15
r2510 710 2091 10
r2511 708 710 0.752952
r2512 708 2091 10
r2513 706 708 0.752952
r2514 706 2091 10
r2515 704 706 0.752952
r2516 704 2091 10
r2517 702 2479 1.62117
r2518 702 704 0.502386
r2519 702 2091 15
r2520 698 898 0.0121635
r2521 698 896 0.0689266
r2522 698 2464 0.0753595
r2523 698 2009 15
r2524 696 2087 10
r2525 694 696 0.752952
r2526 694 2087 10
r2527 692 694 0.752952
r2528 692 2087 10
r2529 690 692 0.752952
r2530 690 2087 10
r2531 688 2464 1.62117
r2532 688 690 0.502386
r2533 688 2087 15
r2534 684 880 0.0527086
r2535 684 2383 0.00912264
r2536 684 2385 0.0753595
r2537 684 2009 15
r2538 682 2067 10
r2539 680 682 0.752952
r2540 680 2067 10
r2541 678 680 0.752952
r2542 678 2067 10
r2543 676 678 0.752952
r2544 676 2067 10
r2545 674 2385 1.62117
r2546 674 676 0.502386
r2547 674 2067 15
r2548 670 2061 10
r2549 668 670 0.7517
r2550 668 2061 10
r2551 666 668 0.7517
r2552 666 2061 10
r2553 664 666 0.7517
r2554 664 2061 10
r2555 662 2360 0.507397
r2556 662 664 0.501133
r2557 662 2061 30
r2558 660 2630 0.0871719
r2559 660 2628 0.0182453
r2560 660 2009 15
r2561 658 2059 10
r2562 656 658 0.7517
r2563 656 2059 10
r2564 654 656 0.7517
r2565 654 2059 10
r2566 652 654 0.7517
r2567 652 2059 10
r2568 650 2353 0.507397
r2569 650 652 0.501133
r2570 650 2059 30
r2571 580 2350 0.0314224
r2572 580 2009 10
r2573 578 2349 0.0881856
r2574 578 580 0.0810902
r2575 578 2009 30
r2576 576 2057 10
r2577 574 576 0.58388
r2578 574 2057 10
r2579 572 574 0.584852
r2580 572 2057 10
r2581 570 572 0.582909
r2582 570 2057 10
r2583 568 570 0.58388
r2584 568 2057 10
r2585 566 2341 0.868213
r2586 566 568 0.389577
r2587 566 2057 30
r2588 562 2338 0.0314224
r2589 562 2009 10
r2590 560 2337 0.0881856
r2591 560 562 0.0810902
r2592 560 2009 30
r2593 558 2055 10
r2594 556 558 0.58388
r2595 556 2055 10
r2596 554 556 0.584852
r2597 554 2055 10
r2598 552 554 0.582909
r2599 552 2055 10
r2600 550 552 0.58388
r2601 550 2055 10
r2602 548 2329 0.868213
r2603 548 550 0.389577
r2604 548 2055 30
r2605 544 2376 0.0565869
r2606 544 2374 0.00666941
r2607 544 2384 0.00666941
r2608 544 2009 15
r2609 542 2065 10
r2610 540 542 0.752952
r2611 540 2065 10
r2612 538 540 0.752952
r2613 538 2065 10
r2614 536 538 0.752952
r2615 536 2065 10
r2616 534 2376 1.62117
r2617 534 536 0.502386
r2618 534 2065 15
r2619 530 2375 0.00912264
r2620 530 2630 0.0891992
r2621 530 2367 0.0753595
r2622 530 2009 15
r2623 528 2063 10
r2624 526 528 0.752952
r2625 526 2063 10
r2626 524 526 0.752952
r2627 524 2063 10
r2628 522 524 0.752952
r2629 522 2063 10
r2630 520 2367 1.62117
r2631 520 522 0.502386
r2632 520 2063 15
r2633 516 2320 0.0565869
r2634 516 2318 0.00666941
r2635 516 2328 0.00666941
r2636 516 2009 15
r2637 514 2053 10
r2638 512 514 0.752952
r2639 512 2053 10
r2640 510 512 0.752952
r2641 510 2053 10
r2642 508 510 0.752952
r2643 508 2053 10
r2644 506 2320 1.62117
r2645 506 508 0.502386
r2646 506 2053 15
r2647 502 2047 10
r2648 500 502 0.7517
r2649 500 2047 10
r2650 498 500 0.7517
r2651 498 2047 10
r2652 496 498 0.7517
r2653 496 2047 10
r2654 494 2295 0.507397
r2655 494 496 0.501133
r2656 494 2047 30
r2657 492 2622 0.0871719
r2658 492 2620 0.0182453
r2659 492 2009 15
r2660 490 2045 10
r2661 488 490 0.7517
r2662 488 2045 10
r2663 486 488 0.7517
r2664 486 2045 10
r2665 484 486 0.7517
r2666 484 2045 10
r2667 482 2288 0.507397
r2668 482 484 0.501133
r2669 482 2045 30
r2670 412 2285 0.0314224
r2671 412 2009 10
r2672 410 2284 0.0881856
r2673 410 412 0.0810902
r2674 410 2009 30
r2675 408 2043 10
r2676 406 408 0.58388
r2677 406 2043 10
r2678 404 406 0.584852
r2679 404 2043 10
r2680 402 404 0.582909
r2681 402 2043 10
r2682 400 402 0.58388
r2683 400 2043 10
r2684 398 2276 0.868213
r2685 398 400 0.389577
r2686 398 2043 30
r2687 394 2273 0.00405451
r2688 394 2009 10
r2689 392 2270 0.0881856
r2690 392 394 0.0810902
r2691 392 2009 30
r2692 390 2041 10
r2693 388 390 0.58388
r2694 388 2041 10
r2695 386 388 0.584852
r2696 386 2041 10
r2697 384 386 0.582909
r2698 384 2041 10
r2699 382 384 0.58388
r2700 382 2041 10
r2701 380 2262 0.868213
r2702 380 382 0.389577
r2703 380 2041 30
r2704 376 2311 0.0565869
r2705 376 2309 0.00666941
r2706 376 2319 0.00666941
r2707 376 2009 15
r2708 374 2051 10
r2709 372 374 0.752952
r2710 372 2051 10
r2711 370 372 0.752952
r2712 370 2051 10
r2713 368 370 0.752952
r2714 368 2051 10
r2715 366 2311 1.62117
r2716 366 368 0.502386
r2717 366 2051 15
r2718 362 2310 0.00912264
r2719 362 2622 0.0891992
r2720 362 2302 0.0753595
r2721 362 2009 15
r2722 360 2049 10
r2723 358 360 0.752952
r2724 358 2049 10
r2725 356 358 0.752952
r2726 356 2049 10
r2727 354 356 0.752952
r2728 354 2049 10
r2729 352 2302 1.62117
r2730 352 354 0.502386
r2731 352 2049 15
r2732 348 2253 0.0565869
r2733 348 2251 0.00666941
r2734 348 2261 0.00666941
r2735 348 2009 15
r2736 346 2039 10
r2737 344 346 0.752952
r2738 344 2039 10
r2739 342 344 0.752952
r2740 342 2039 10
r2741 340 342 0.752952
r2742 340 2039 10
r2743 338 2253 1.62117
r2744 338 340 0.502386
r2745 338 2039 15
r2746 334 2033 10
r2747 332 334 0.7517
r2748 332 2033 10
r2749 330 332 0.7517
r2750 330 2033 10
r2751 328 330 0.7517
r2752 328 2033 10
r2753 326 2228 0.507397
r2754 326 328 0.501133
r2755 326 2033 30
r2756 324 2614 0.0871719
r2757 324 2612 0.0182453
r2758 324 2009 15
r2759 322 2031 10
r2760 320 322 0.7517
r2761 320 2031 10
r2762 318 320 0.7517
r2763 318 2031 10
r2764 316 318 0.7517
r2765 316 2031 10
r2766 314 2221 0.507397
r2767 314 316 0.501133
r2768 314 2031 30
r2769 244 2218 0.0314224
r2770 244 2009 10
r2771 242 2217 0.0881856
r2772 242 244 0.0810902
r2773 242 2009 30
r2774 240 2029 10
r2775 238 240 0.58388
r2776 238 2029 10
r2777 236 238 0.584852
r2778 236 2029 10
r2779 234 236 0.582909
r2780 234 2029 10
r2781 232 234 0.58388
r2782 232 2029 10
r2783 230 2209 0.868213
r2784 230 232 0.389577
r2785 230 2029 30
r2786 226 2206 0.0314224
r2787 226 2009 10
r2788 224 2205 0.0881856
r2789 224 226 0.0810902
r2790 224 2009 30
r2791 222 2027 10
r2792 220 222 0.58388
r2793 220 2027 10
r2794 218 220 0.584852
r2795 218 2027 10
r2796 216 218 0.582909
r2797 216 2027 10
r2798 214 216 0.58388
r2799 214 2027 10
r2800 212 2197 0.868213
r2801 212 214 0.389577
r2802 212 2027 30
r2803 208 2244 0.0565869
r2804 208 2242 0.00666941
r2805 208 2252 0.00666941
r2806 208 2009 15
r2807 206 2037 10
r2808 204 206 0.752952
r2809 204 2037 10
r2810 202 204 0.752952
r2811 202 2037 10
r2812 200 202 0.752952
r2813 200 2037 10
r2814 198 2244 1.62117
r2815 198 200 0.502386
r2816 198 2037 15
r2817 194 2243 0.00912264
r2818 194 2614 0.0891992
r2819 194 2235 0.0753595
r2820 194 2009 15
r2821 192 2035 10
r2822 190 192 0.752952
r2823 190 2035 10
r2824 188 190 0.752952
r2825 188 2035 10
r2826 186 188 0.752952
r2827 186 2035 10
r2828 184 2235 1.62117
r2829 184 186 0.502386
r2830 184 2035 15
r2831 180 2188 0.0565869
r2832 180 2186 0.00666941
r2833 180 2196 0.00666941
r2834 180 2009 15
r2835 178 2025 10
r2836 176 178 0.752952
r2837 176 2025 10
r2838 174 176 0.752952
r2839 174 2025 10
r2840 172 174 0.752952
r2841 172 2025 10
r2842 170 2188 1.62117
r2843 170 172 0.502386
r2844 170 2025 15
r2845 166 2019 10
r2846 164 166 0.7517
r2847 164 2019 10
r2848 162 164 0.7517
r2849 162 2019 10
r2850 160 162 0.7517
r2851 160 2019 10
r2852 158 2163 0.507397
r2853 158 160 0.501133
r2854 158 2019 30
r2855 156 2606 0.0871719
r2856 156 2604 0.0182453
r2857 156 2009 15
r2858 154 2017 10
r2859 152 154 0.7517
r2860 152 2017 10
r2861 150 152 0.7517
r2862 150 2017 10
r2863 148 150 0.7517
r2864 148 2017 10
r2865 146 2156 0.507397
r2866 146 148 0.501133
r2867 146 2017 30
r2868 76 2153 0.0314224
r2869 76 2009 10
r2870 74 2152 0.0881856
r2871 74 76 0.0810902
r2872 74 2009 30
r2873 72 2015 10
r2874 70 72 0.58388
r2875 70 2015 10
r2876 68 70 0.584852
r2877 68 2015 10
r2878 66 68 0.582909
r2879 66 2015 10
r2880 64 66 0.58388
r2881 64 2015 10
r2882 62 2144 0.868213
r2883 62 64 0.389577
r2884 62 2015 30
r2885 58 2141 0.0314224
r2886 58 2009 10
r2887 56 2140 0.0881856
r2888 56 58 0.0810902
r2889 56 2009 30
r2890 54 2013 10
r2891 52 54 0.58388
r2892 52 2013 10
r2893 50 52 0.584852
r2894 50 2013 10
r2895 48 50 0.582909
r2896 48 2013 10
r2897 46 48 0.58388
r2898 46 2013 10
r2899 44 2132 0.868213
r2900 44 46 0.389577
r2901 44 2013 30
r2902 40 2179 0.0565869
r2903 40 2177 0.00666941
r2904 40 2187 0.00666941
r2905 40 2009 15
r2906 38 2023 10
r2907 36 38 0.752952
r2908 36 2023 10
r2909 34 36 0.752952
r2910 34 2023 10
r2911 32 34 0.752952
r2912 32 2023 10
r2913 30 2179 1.62117
r2914 30 32 0.502386
r2915 30 2023 15
r2916 26 2178 0.00912264
r2917 26 2606 0.0891992
r2918 26 2170 0.0753595
r2919 26 2009 15
r2920 24 2021 10
r2921 22 24 0.752952
r2922 22 2021 10
r2923 20 22 0.752952
r2924 20 2021 10
r2925 18 20 0.752952
r2926 18 2021 10
r2927 16 2170 1.62117
r2928 16 18 0.502386
r2929 16 2021 15
r2930 12 2123 0.0643933
r2931 12 2131 0.0227338
r2932 12 2009 15
r2933 10 2011 10
r2934 8 10 0.752952
r2935 8 2011 10
r2936 6 8 0.752952
r2937 6 2011 10
r2938 4 6 0.752952
r2939 4 2011 10
r2940 2 2123 1.62117
r2941 2 4 0.502386
r2942 2 2011 15
.ends

.subckt PM_DECODER%GND! 4 22 131 149 258 276 385 403 512 530 637 648 655 659 668
+ 681 745 766 784 891 902 909 922 935 999 1289 1290 1292 1294 1296 1298 1300
+ 1302 1304 1306 1308 1310 1312 1314 1316 1318 1320 1322 1324 1326 1328 1330
+ 1332 1334 1336 1338 1340 1342 1344 1346 1348 1350 1352 1354 1356 1358 1360
+ 1362 1364 1366 1368 1370 1372 1374 1376 1378 1380 1382 1384 1422 1437 1443
+ 1458 1464 1469 1481 1487 1502 1510 1525 1540 1546 1552 1567 1591 1607
c1716 1591 0 1.60952e-19
c1717 1567 0 5.58174e-19
c1718 1546 0 1.86058e-19
c1719 1540 0 1.86058e-19
c1720 1525 0 5.58174e-19
c1721 1502 0 1.86058e-19
c1722 1481 0 1.86058e-19
c1723 1458 0 1.86058e-19
c1724 1437 0 1.86058e-19
c1725 1376 0 1.48417e-19
c1726 1370 0 1.48417e-19
c1727 1352 0 1.48417e-19
c1728 1346 0 1.48417e-19
c1729 1344 0 1.98328e-19
c1730 1340 0 1.98328e-19
c1731 1332 0 1.48417e-19
c1732 1320 0 1.48417e-19
c1733 1308 0 1.48417e-19
c1734 1296 0 1.48417e-19
r1735 1590 1591 16.0914
r1736 1588 1591 0.0479332
r1737 1588 1609 0.155442
r1738 1586 1590 0.0479332
r1739 1586 1607 0.155442
r1740 1567 1577 0.636342
r1741 1553 1554 0.636342
r1742 1546 1547 0.592624
r1743 1540 1541 0.592624
r1744 1525 1535 0.636342
r1745 1511 1512 0.636342
r1746 1502 1503 0.592624
r1747 1488 1489 0.636342
r1748 1481 1482 0.592624
r1749 1465 1466 0.636342
r1750 1458 1459 0.592624
r1751 1444 1445 0.636342
r1752 1437 1438 0.592624
r1753 1423 1424 0.636342
r1754 1417 1577 0.0250874
r1755 1415 1561 0.0250874
r1756 1414 1574 0.0250874
r1757 1413 1557 0.0250874
r1758 1412 1570 0.0250874
r1759 1410 1554 0.0250874
r1760 1409 1535 0.0250874
r1761 1407 1519 0.0250874
r1762 1406 1532 0.0250874
r1763 1405 1515 0.0250874
r1764 1404 1528 0.0250874
r1765 1402 1512 0.0250874
r1766 1400 1496 0.0250874
r1767 1399 1492 0.0250874
r1768 1398 1489 0.0250874
r1769 1396 1475 0.0250874
r1770 1395 1471 0.0250874
r1771 1394 1466 0.0250874
r1772 1392 1452 0.0250874
r1773 1391 1448 0.0250874
r1774 1390 1445 0.0250874
r1775 1388 1431 0.0250874
r1776 1387 1427 0.0250874
r1777 1386 1424 0.0250874
r1778 1008 1370 10
r1779 1005 1008 0.582909
r1780 1005 1370 10
r1781 1002 1005 0.582909
r1782 1002 1370 10
r1783 999 1002 0.592624
r1784 999 1412 0.582909
r1785 999 1370 10
r1786 995 1570 0.344888
r1787 995 1289 15
r1788 939 1574 0.194303
r1789 939 1289 10
r1790 937 939 0.394676
r1791 937 995 0.626627
r1792 937 1289 30
r1793 935 1414 0.923338
r1794 935 1374 10
r1795 933 935 0.582909
r1796 933 1374 10
r1797 931 933 0.389577
r1798 931 1374 30
r1799 926 1577 0.194303
r1800 926 1289 10
r1801 924 926 0.394676
r1802 924 1574 0.466327
r1803 924 1289 30
r1804 922 1417 0.923338
r1805 922 1380 10
r1806 920 922 0.582909
r1807 920 1380 10
r1808 918 920 0.389577
r1809 918 1380 30
r1810 913 1563 0.0220114
r1811 913 1546 0.0238874
r1812 913 1568 0.0238874
r1813 913 1289 15
r1814 911 1563 1.1739
r1815 911 1364 10
r1816 909 911 0.752952
r1817 909 1364 10
r1818 904 1570 0.427467
r1819 904 1568 0.636342
r1820 904 1411 0.0250874
r1821 904 1289 15
r1822 902 1411 1.1739
r1823 902 1368 10
r1824 900 902 0.752952
r1825 900 1368 10
r1826 895 1609 0.23615
r1827 895 1567 0.0437182
r1828 895 1582 0.0250874
r1829 895 1289 15
r1830 893 1582 1.1739
r1831 893 1384 10
r1832 891 893 0.752952
r1833 891 1384 10
r1834 881 1376 10
r1835 878 881 0.582909
r1836 878 1376 10
r1837 875 878 0.582909
r1838 875 1376 10
r1839 872 875 0.592624
r1840 872 1415 0.582909
r1841 872 1376 10
r1842 868 1561 0.344888
r1843 868 1289 15
r1844 812 1557 0.194303
r1845 812 1289 10
r1846 810 868 0.626627
r1847 810 812 0.394676
r1848 810 1289 30
r1849 808 1413 0.923338
r1850 808 1372 10
r1851 806 808 0.582909
r1852 806 1372 10
r1853 804 806 0.389577
r1854 804 1372 30
r1855 799 1554 0.194303
r1856 799 1289 10
r1857 797 1557 0.466327
r1858 797 799 0.394676
r1859 797 1289 30
r1860 795 1410 0.923338
r1861 795 1366 10
r1862 793 795 0.582909
r1863 793 1366 10
r1864 791 793 0.389577
r1865 791 1366 30
r1866 786 1607 0.488744
r1867 786 1578 0.0250874
r1868 786 1552 0.0437182
r1869 786 1289 15
r1870 784 1578 1.1739
r1871 784 1382 10
r1872 782 784 0.752952
r1873 782 1382 10
r1874 777 1552 0.636342
r1875 777 1416 0.0250874
r1876 777 1561 0.427467
r1877 777 1289 15
r1878 775 1416 1.1739
r1879 775 1378 10
r1880 773 775 0.752952
r1881 773 1378 10
r1882 768 1548 0.0220114
r1883 768 1540 0.0238874
r1884 768 1553 0.0238874
r1885 768 1289 15
r1886 766 1548 1.1739
r1887 766 1362 10
r1888 764 766 0.752952
r1889 764 1362 10
r1890 754 1346 10
r1891 751 754 0.582909
r1892 751 1346 10
r1893 748 751 0.582909
r1894 748 1346 10
r1895 745 748 0.592624
r1896 745 1404 0.582909
r1897 745 1346 10
r1898 741 1528 0.344888
r1899 741 1289 15
r1900 685 1532 0.194303
r1901 685 1289 10
r1902 683 685 0.394676
r1903 683 741 0.626627
r1904 683 1289 30
r1905 681 1406 0.923338
r1906 681 1350 10
r1907 679 681 0.582909
r1908 679 1350 10
r1909 677 679 0.389577
r1910 677 1350 30
r1911 672 1535 0.194303
r1912 672 1289 10
r1913 670 672 0.394676
r1914 670 1532 0.466327
r1915 670 1289 30
r1916 668 1409 0.923338
r1917 668 1356 10
r1918 666 668 0.582909
r1919 666 1356 10
r1920 664 666 0.389577
r1921 664 1356 30
r1922 659 1521 0.0220114
r1923 659 1526 0.0238874
r1924 659 1289 15
r1925 657 1521 1.1739
r1926 657 1340 10
r1927 655 657 0.752952
r1928 655 1340 10
r1929 650 1528 0.427467
r1930 650 1526 0.636342
r1931 650 1403 0.0250874
r1932 650 1289 15
r1933 648 1403 1.1739
r1934 648 1344 10
r1935 646 648 0.752952
r1936 646 1344 10
r1937 641 1542 0.0220114
r1938 641 1525 0.0238874
r1939 641 1547 0.0238874
r1940 641 1289 15
r1941 639 1542 1.1739
r1942 639 1360 10
r1943 637 639 0.752952
r1944 637 1360 10
r1945 627 1352 10
r1946 624 627 0.582909
r1947 624 1352 10
r1948 621 624 0.582909
r1949 621 1352 10
r1950 618 621 0.592624
r1951 618 1407 0.582909
r1952 618 1352 10
r1953 614 1519 0.344888
r1954 614 1289 15
r1955 558 1515 0.194303
r1956 558 1289 10
r1957 556 614 0.626627
r1958 556 558 0.394676
r1959 556 1289 30
r1960 554 1405 0.923338
r1961 554 1348 10
r1962 552 554 0.582909
r1963 552 1348 10
r1964 550 552 0.389577
r1965 550 1348 30
r1966 545 1512 0.194303
r1967 545 1289 10
r1968 543 1515 0.466327
r1969 543 545 0.394676
r1970 543 1289 30
r1971 541 1402 0.923338
r1972 541 1342 10
r1973 539 541 0.582909
r1974 539 1342 10
r1975 537 539 0.389577
r1976 537 1342 30
r1977 532 1536 0.0220114
r1978 532 1510 0.0238874
r1979 532 1541 0.0238874
r1980 532 1289 15
r1981 530 1536 1.1739
r1982 530 1358 10
r1983 528 530 0.752952
r1984 528 1358 10
r1985 523 1510 0.636342
r1986 523 1408 0.0250874
r1987 523 1519 0.427467
r1988 523 1289 15
r1989 521 1408 1.1739
r1990 521 1354 10
r1991 519 521 0.752952
r1992 519 1354 10
r1993 514 1506 0.0220114
r1994 514 1502 0.0238874
r1995 514 1511 0.0238874
r1996 514 1289 15
r1997 512 1506 1.1739
r1998 512 1338 10
r1999 510 512 0.752952
r2000 510 1338 10
r2001 500 1332 10
r2002 497 500 0.582909
r2003 497 1332 10
r2004 494 497 0.582909
r2005 494 1332 10
r2006 491 494 0.592624
r2007 491 1400 0.582909
r2008 491 1332 10
r2009 487 1496 0.344888
r2010 487 1289 15
r2011 431 1492 0.194303
r2012 431 1289 10
r2013 429 487 0.626627
r2014 429 431 0.394676
r2015 429 1289 30
r2016 427 1399 0.923338
r2017 427 1330 10
r2018 425 427 0.582909
r2019 425 1330 10
r2020 423 425 0.389577
r2021 423 1330 30
r2022 418 1489 0.194303
r2023 418 1289 10
r2024 416 1492 0.466327
r2025 416 418 0.394676
r2026 416 1289 30
r2027 414 1398 0.923338
r2028 414 1328 10
r2029 412 414 0.582909
r2030 412 1328 10
r2031 410 412 0.389577
r2032 410 1328 30
r2033 405 1498 0.0220114
r2034 405 1487 0.0238874
r2035 405 1503 0.0238874
r2036 405 1289 15
r2037 403 1498 1.1739
r2038 403 1336 10
r2039 401 403 0.752952
r2040 401 1336 10
r2041 396 1487 0.636342
r2042 396 1401 0.0250874
r2043 396 1496 0.427467
r2044 396 1289 15
r2045 394 1401 1.1739
r2046 394 1334 10
r2047 392 394 0.752952
r2048 392 1334 10
r2049 387 1483 0.0220114
r2050 387 1481 0.0238874
r2051 387 1488 0.0238874
r2052 387 1289 15
r2053 385 1483 1.1739
r2054 385 1326 10
r2055 383 385 0.752952
r2056 383 1326 10
r2057 373 1320 10
r2058 370 373 0.582909
r2059 370 1320 10
r2060 367 370 0.582909
r2061 367 1320 10
r2062 364 367 0.592624
r2063 364 1396 0.582909
r2064 364 1320 10
r2065 360 1475 0.344888
r2066 360 1289 15
r2067 304 1471 0.194303
r2068 304 1289 10
r2069 302 360 0.626627
r2070 302 304 0.394676
r2071 302 1289 30
r2072 300 1395 0.923338
r2073 300 1318 10
r2074 298 300 0.582909
r2075 298 1318 10
r2076 296 298 0.389577
r2077 296 1318 30
r2078 291 1469 0.109523
r2079 291 1466 0.194303
r2080 291 1289 10
r2081 289 1471 0.466327
r2082 289 1469 0.285154
r2083 289 1289 30
r2084 287 1394 0.923338
r2085 287 1316 10
r2086 285 287 0.582909
r2087 285 1316 10
r2088 283 285 0.389577
r2089 283 1316 30
r2090 278 1477 0.0220114
r2091 278 1464 0.0238874
r2092 278 1482 0.0238874
r2093 278 1289 15
r2094 276 1477 1.1739
r2095 276 1324 10
r2096 274 276 0.752952
r2097 274 1324 10
r2098 269 1464 0.636342
r2099 269 1397 0.0250874
r2100 269 1475 0.427467
r2101 269 1289 15
r2102 267 1397 1.1739
r2103 267 1322 10
r2104 265 267 0.752952
r2105 265 1322 10
r2106 260 1460 0.0220114
r2107 260 1458 0.0238874
r2108 260 1465 0.0238874
r2109 260 1289 15
r2110 258 1460 1.1739
r2111 258 1314 10
r2112 256 258 0.752952
r2113 256 1314 10
r2114 246 1308 10
r2115 243 246 0.582909
r2116 243 1308 10
r2117 240 243 0.582909
r2118 240 1308 10
r2119 237 240 0.592624
r2120 237 1392 0.582909
r2121 237 1308 10
r2122 233 1452 0.344888
r2123 233 1289 15
r2124 177 1448 0.194303
r2125 177 1289 10
r2126 175 233 0.626627
r2127 175 177 0.394676
r2128 175 1289 30
r2129 173 1391 0.923338
r2130 173 1306 10
r2131 171 173 0.582909
r2132 171 1306 10
r2133 169 171 0.389577
r2134 169 1306 30
r2135 164 1445 0.194303
r2136 164 1289 10
r2137 162 1448 0.466327
r2138 162 164 0.394676
r2139 162 1289 30
r2140 160 1390 0.923338
r2141 160 1304 10
r2142 158 160 0.582909
r2143 158 1304 10
r2144 156 158 0.389577
r2145 156 1304 30
r2146 151 1454 0.0220114
r2147 151 1443 0.0238874
r2148 151 1459 0.0238874
r2149 151 1289 15
r2150 149 1454 1.1739
r2151 149 1312 10
r2152 147 149 0.752952
r2153 147 1312 10
r2154 142 1443 0.636342
r2155 142 1393 0.0250874
r2156 142 1452 0.427467
r2157 142 1289 15
r2158 140 1393 1.1739
r2159 140 1310 10
r2160 138 140 0.752952
r2161 138 1310 10
r2162 133 1439 0.0220114
r2163 133 1437 0.0238874
r2164 133 1444 0.0238874
r2165 133 1289 15
r2166 131 1439 1.1739
r2167 131 1302 10
r2168 129 131 0.752952
r2169 129 1302 10
r2170 119 1296 10
r2171 116 119 0.582909