* File: SECDED.pex.netlist.pex
* Created: Tue May  3 19:19:53 2022
* Program "Calibre xRC"
* Version "v2013.2_18.13"
* Nominal Temperature: 27C
* Circuit Temperature: 27C
* 
.subckt PM_SECDED%XI30/NET9 4 9 10 12 26 29 31 32 34 35 38 41 48 55 79 83 86 87
+ 89 90 91 92 93
c156 86 0 1.39558e-19
c157 41 0 1.5944e-19
c158 38 0 2.82217e-19
c159 34 0 1.82943e-19
c160 31 0 3.5994e-19
r161 88 89 0.0686638
r162 86 87 0.0686638
r163 83 93 10
r164 81 83 0.344888
r165 80 90 0.00944082
r166 79 81 0.0479332
r167 79 80 0.851426
r168 76 91 30
r169 73 76 0.388606
r170 73 91 10
r171 70 73 0.582909
r172 70 91 10
r173 67 70 0.582909
r174 67 91 10
r175 64 67 0.582909
r176 64 91 10
r177 61 64 0.582909
r178 61 91 10
r179 58 61 0.582909
r180 58 91 10
r181 55 58 0.582909
r182 55 89 0.344888
r183 55 91 10
r184 51 90 0.0363272
r185 51 87 0.0874363
r186 48 92 10
r187 46 90 0.0363272
r188 46 48 0.344888
r189 41 88 0.0960611
r190 41 86 0.0836297
r191 40 41 1.7
r192 34 40 0.0955526
r193 34 35 0.704033
r194 32 35 0.0477651
r195 32 38 0.151232
r196 26 31 153.887
r197 25 29 69.9487
r198 14 15 25
r199 12 15 0.00466576
r200 11 38 0.112345
r201 11 12 1.7
r202 9 14 4.17508
r203 9 10 0.833027
r204 5 10 5.18609
r205 5 26 16.0034
r206 4 10 5.18609
r207 4 25 16.0034
.ends

.subckt PM_SECDED%GND! 4 6 13 20 24 31 38 42 47 64 71 80 95 121 172 173 175 187
+ 189 196 211 237 289 291 303 305 312 327 353 405 407 419 428 443 469 521 523
+ 533 548 561 572 585 598 611 624 637 650 663 676 680 692 709 729 740 760 771
+ 791 1140 1142 1144 1146 1148 1150 1152 1154 1156 1158 1160 1162 1164 1166 1168
+ 1170 1172 1174 1176 1178 1180 1182 1184 1186 1188 1190 1192 1194 1196 1198
+ 1200 1202 1204 1206 1208 1210 1212 1214 1233 1234 1244 1265 1274 1287 1292
+ 1301 1307 1316 1323 1326 1333 1336 1344 1352 1358 1367 1375 1383 1392 1400
+ 1404 1410 1419 1425 1432 1443 1449 1458 1469 1479 1484 1493 1499 1520 1529
+ 1535 1552 1561 1567 1588 1591 1592 1593 1597 1600 1605 1607 1624 1626
c2417 1597 0 8.05076e-20
c2418 1567 0 3.72116e-19
c2419 1552 0 3.72116e-19
c2420 1535 0 3.72116e-19
c2421 1520 0 3.90162e-19
c2422 1499 0 3.90162e-19
c2423 1484 0 3.71861e-19
c2424 1449 0 3.77336e-19
c2425 1443 0 1.29153e-19
c2426 1425 0 3.77336e-19
c2427 1419 0 1.86058e-19
c2428 1410 0 1.93406e-19
c2429 1400 0 1.91153e-19
c2430 1392 0 1.86058e-19
c2431 1383 0 1.86058e-19
c2432 1375 0 1.91153e-19
c2433 1358 0 3.72116e-19
c2434 1316 0 1.90046e-19
c2435 1307 0 1.39558e-19
c2436 1301 0 1.86058e-19
c2437 1292 0 1.86058e-19
c2438 1287 0 1.92588e-19
c2439 1274 0 1.86058e-19
c2440 1265 0 3.72116e-19
c2441 1244 0 3.72116e-19
c2442 1234 0 1.91153e-19
c2443 1190 0 1.75398e-19
c2444 1188 0 9.96831e-20
c2445 1184 0 1.75398e-19
c2446 1182 0 1.98328e-19
c2447 1176 0 1.98328e-19
c2448 1174 0 7.52499e-20
c2449 1172 0 9.20053e-20
c2450 1170 0 1.98328e-19
c2451 1168 0 9.86452e-20
c2452 1160 0 1.98328e-19
c2453 1158 0 9.96831e-20
c2454 1148 0 9.86452e-20
c2455 1146 0 1.54566e-19
c2456 1144 0 1.53514e-19
c2457 1142 0 1.98328e-19
c2458 1140 0 1.98328e-19
c2459 791 0 1.5009e-19
c2460 760 0 1.5009e-19
c2461 523 0 1.95166e-19
c2462 443 0 1.5009e-19
c2463 407 0 1.95166e-19
c2464 327 0 1.5009e-19
c2465 291 0 1.95166e-19
c2466 211 0 1.5009e-19
c2467 175 0 1.95166e-19
c2468 172 0 0.00231249f
c2469 95 0 1.5009e-19
c2470 31 0 1.5944e-19
r2471 1567 1572 0.0515295
r2472 1562 1619 0.0238874
r2473 1561 1562 0.345342
r2474 1555 1619 0.0220114
r2475 1552 1619 0.0238874
r2476 1547 1617 0.0238874
r2477 1546 1547 0.34003
r2478 1540 1617 0.0220114
r2479 1535 1617 0.0238874
r2480 1530 1615 0.0238874
r2481 1529 1530 0.345342
r2482 1523 1615 0.0220114
r2483 1520 1615 0.0238874
r2484 1515 1613 0.0238874
r2485 1514 1515 0.34003
r2486 1508 1613 0.0220114
r2487 1499 1613 0.0238874
r2488 1494 1611 0.0238874
r2489 1493 1494 0.345342
r2490 1487 1611 0.0220114
r2491 1484 1611 0.0238874
r2492 1480 1609 0.0238874
r2493 1479 1504 0.0515295
r2494 1471 1609 0.0220114
r2495 1470 1608 0.0238874
r2496 1469 1470 0.34003
r2497 1463 1608 0.0220114
r2498 1459 1607 0.0238874
r2499 1458 1609 0.0238874
r2500 1454 1607 0.0220114
r2501 1449 1608 0.0238874
r2502 1444 1605 0.0238874
r2503 1443 1444 0.345342
r2504 1437 1605 0.0220114
r2505 1433 1604 0.0238874
r2506 1432 1607 0.0238874
r2507 1428 1604 0.0220114
r2508 1425 1605 0.0238874
r2509 1419 1420 0.592624
r2510 1411 1601 0.0238874
r2511 1410 1604 0.0238874
r2512 1406 1601 0.0220114
r2513 1401 1600 0.0238874
r2514 1394 1600 0.0220114
r2515 1392 1600 0.0238874
r2516 1392 1393 0.592624
r2517 1384 1598 0.0238874
r2518 1383 1601 0.0238874
r2519 1379 1598 0.0220114
r2520 1376 1597 0.0238874
r2521 1369 1597 0.0220114
r2522 1367 1597 0.0238874
r2523 1367 1368 0.601881
r2524 1358 1598 0.0238874
r2525 1353 1594 0.0238874
r2526 1352 1353 0.34003
r2527 1348 1594 0.0220114
r2528 1345 1593 0.0238874
r2529 1338 1593 0.0220114
r2530 1337 1592 0.0238874
r2531 1336 1593 0.0238874
r2532 1336 1337 0.34003
r2533 1333 1626 10
r2534 1331 1592 0.0220114
r2535 1331 1333 0.535305
r2536 1327 1591 0.0238874
r2537 1327 1329 0.264252
r2538 1326 1592 0.0238874
r2539 1326 1329 0.279796
r2540 1323 1624 10
r2541 1321 1591 0.0220114
r2542 1321 1323 0.535305
r2543 1316 1594 0.0238874
r2544 1308 1310 0.590681
r2545 1307 1591 0.0238874
r2546 1307 1310 0.0369176
r2547 1302 1588 0.0238874
r2548 1301 1302 0.592624
r2549 1297 1588 0.0220114
r2550 1292 1588 0.0238874
r2551 1288 1586 0.0238874
r2552 1279 1586 0.0220114
r2553 1275 1585 0.0238874
r2554 1274 1586 0.0238874
r2555 1270 1585 0.0220114
r2556 1266 1584 0.0238874
r2557 1261 1584 0.0220114
r2558 1259 1585 0.0238874
r2559 1259 1260 0.34003
r2560 1254 1582 0.0238874
r2561 1253 1584 0.0238874
r2562 1253 1254 0.34003
r2563 1247 1582 0.0220114
r2564 1245 1580 0.0437182
r2565 1238 1580 0.0250874
r2566 1234 1582 0.0238874
r2567 1233 1580 0.20499
r2568 1232 1233 1.52886
r2569 1219 1570 0.0250874
r2570 1218 1538 0.0250874
r2571 1217 1502 0.0250874
r2572 1216 1452 0.0250874
r2573 795 1404 0.00388606
r2574 795 1401 0.30117
r2575 793 1400 0.548906
r2576 793 1404 0.447868
r2577 791 1394 0.582909
r2578 791 1178 10
r2579 789 791 0.592624
r2580 789 1178 10
r2581 787 789 0.582909
r2582 787 1178 10
r2583 785 787 0.582909
r2584 785 1178 10
r2585 773 1415 0.0220114
r2586 773 1400 0.0238874
r2587 773 1420 0.0238874
r2588 771 1415 1.1739
r2589 771 1182 10
r2590 769 771 0.752952
r2591 769 1182 10
r2592 764 1376 0.30117
r2593 762 1375 0.548906
r2594 762 764 0.451754
r2595 760 1369 0.582909
r2596 760 1172 10
r2597 758 760 0.592624
r2598 758 1172 10
r2599 756 758 0.582909
r2600 756 1172 10
r2601 754 756 0.582909
r2602 754 1172 10
r2603 742 1388 0.0220114
r2604 742 1375 0.0238874
r2605 742 1393 0.0238874
r2606 740 1388 1.1739
r2607 740 1176 10
r2608 738 740 0.752952
r2609 738 1176 10
r2610 733 1345 0.30117
r2611 731 1344 0.548906
r2612 731 733 0.451754
r2613 729 1338 0.582909
r2614 729 1164 10
r2615 727 729 0.592624
r2616 727 1164 10
r2617 725 727 0.582909
r2618 725 1164 10
r2619 723 725 0.582909
r2620 723 1164 10
r2621 711 1363 0.0220114
r2622 711 1344 0.0238874
r2623 711 1368 0.0238874
r2624 709 1363 1.1739
r2625 709 1170 10
r2626 707 709 0.752952
r2627 707 1170 10
r2628 702 1234 0.30117
r2629 700 702 0.451754
r2630 700 1235 0.228306
r2631 698 1247 0.582909
r2632 698 1146 10
r2633 696 698 0.592624
r2634 696 1146 10
r2635 694 696 0.582909
r2636 694 1146 10
r2637 692 694 0.582909
r2638 692 1146 10
r2639 680 1228 0.0364042
r2640 680 1232 0.00907641
r2641 680 1235 0.00957156
r2642 678 1228 1.1739
r2643 678 1142 10
r2644 676 678 0.752952
r2645 676 1142 10
r2646 671 1479 0.150585
r2647 669 671 0.582909
r2648 667 669 0.388606
r2649 667 1480 0.616912
r2650 665 1504 1.1739
r2651 665 1198 10
r2652 663 665 0.752952
r2653 663 1198 10
r2654 658 1458 0.150585
r2655 656 658 0.582909
r2656 654 656 0.388606
r2657 654 1459 0.626549
r2658 652 1471 1.1739
r2659 652 1194 10
r2660 650 652 0.752952
r2661 650 1194 10
r2662 645 1432 0.150585
r2663 643 645 0.582909
r2664 641 643 0.394676
r2665 641 1433 0.626549
r2666 639 1454 1.1739
r2667 639 1188 10
r2668 637 639 0.752952
r2669 637 1188 10
r2670 632 1410 0.150585
r2671 630 632 0.582909
r2672 628 630 0.388606
r2673 628 1411 0.616912
r2674 626 1428 1.1739
r2675 626 1186 10
r2676 624 626 0.752952
r2677 624 1186 10
r2678 619 1383 0.150585
r2679 617 619 0.582909
r2680 615 617 0.388606
r2681 615 1384 0.616912
r2682 613 1406 1.1739
r2683 613 1180 10
r2684 611 613 0.752952
r2685 611 1180 10
r2686 606 1358 0.150585
r2687 604 606 0.582909
r2688 602 604 0.388606
r2689 602 1359 0.869506
r2690 600 1379 1.1739
r2691 600 1174 10
r2692 598 600 0.752952
r2693 598 1174 10
r2694 593 1316 0.150585
r2695 591 593 0.582909
r2696 589 591 0.388606
r2697 589 1317 0.616912
r2698 587 1348 1.1739
r2699 587 1166 10
r2700 585 587 0.752952
r2701 585 1166 10
r2702 580 1292 0.150585
r2703 578 580 0.582909
r2704 576 578 0.388606
r2705 576 1293 0.61594
r2706 574 1297 1.1739
r2707 574 1158 10
r2708 572 574 0.752952
r2709 572 1158 10
r2710 567 1288 0.150585
r2711 565 567 0.582909
r2712 563 1287 0.869506
r2713 563 565 0.388606
r2714 561 1279 1.1739
r2715 561 1156 10
r2716 559 561 0.752952
r2717 559 1156 10
r2718 554 1275 0.150585
r2719 552 554 0.582909
r2720 550 1274 0.626549
r2721 550 552 0.388606
r2722 548 1270 1.1739
r2723 548 1152 10
r2724 546 548 0.752952
r2725 546 1152 10
r2726 541 1266 0.150585
r2727 539 541 0.582909
r2728 537 1265 0.869506
r2729 537 539 0.388606
r2730 535 1261 1.1739
r2731 535 1150 10
r2732 533 535 0.752952
r2733 533 1150 10
r2734 469 1572 0.582909
r2735 469 1214 10
r2736 467 469 0.592624
r2737 467 1214 10
r2738 465 467 0.582909
r2739 465 1214 10
r2740 463 465 0.582909
r2741 463 1214 10
r2742 461 1567 0.30117
r2743 461 1570 0.587766
r2744 456 1219 0.582909
r2745 456 1212 10
r2746 454 456 0.592624
r2747 454 1212 10
r2748 452 454 0.582909
r2749 452 1212 10
r2750 450 452 0.582909
r2751 450 1212 10
r2752 448 1570 0.344888
r2753 448 1568 0.796642
r2754 443 1555 0.7517
r2755 443 521 10
r2756 441 443 0.764228
r2757 441 521 10
r2758 439 441 0.7517
r2759 439 521 10
r2760 437 439 0.7517
r2761 437 521 10
r2762 435 1552 0.30117
r2763 435 1553 0.796642
r2764 430 1563 0.0220114
r2765 430 1561 0.0238874
r2766 430 1568 0.0238874
r2767 428 1563 1.57977
r2768 428 523 10
r2769 426 428 1.01328
r2770 426 523 10
r2771 421 1548 0.0220114
r2772 421 1546 0.0238874
r2773 421 1553 0.0238874
r2774 419 1548 1.1739
r2775 419 1210 10
r2776 417 419 0.752952
r2777 417 1210 10
r2778 353 1540 0.582909
r2779 353 1208 10
r2780 351 353 0.592624
r2781 351 1208 10
r2782 349 351 0.582909
r2783 349 1208 10
r2784 347 349 0.582909
r2785 347 1208 10
r2786 345 1535 0.30117
r2787 345 1538 0.587766
r2788 340 1218 0.582909
r2789 340 1206 10
r2790 338 340 0.592624
r2791 338 1206 10
r2792 336 338 0.582909
r2793 336 1206 10
r2794 334 336 0.582909
r2795 334 1206 10
r2796 332 1538 0.344888
r2797 332 1536 0.796642
r2798 327 1523 0.7517
r2799 327 405 10
r2800 325 327 0.764228
r2801 325 405 10
r2802 323 325 0.7517
r2803 323 405 10
r2804 321 323 0.7517
r2805 321 405 10
r2806 319 1520 0.30117
r2807 319 1521 0.796642
r2808 314 1531 0.0220114
r2809 314 1529 0.0238874
r2810 314 1536 0.0238874
r2811 312 1531 1.57977
r2812 312 407 10
r2813 310 312 1.01328
r2814 310 407 10
r2815 305 1516 0.0220114
r2816 305 1514 0.0238874
r2817 305 1521 0.0238874
r2818 303 1516 1.1739
r2819 303 1204 10
r2820 301 303 0.752952
r2821 301 1204 10
r2822 237 1508 0.582909
r2823 237 1202 10
r2824 235 237 0.592624
r2825 235 1202 10
r2826 233 235 0.582909
r2827 233 1202 10
r2828 231 233 0.582909
r2829 231 1202 10
r2830 229 1499 0.30117
r2831 229 1502 0.587766
r2832 224 1217 0.582909
r2833 224 1200 10
r2834 222 224 0.592624
r2835 222 1200 10
r2836 220 222 0.582909
r2837 220 1200 10
r2838 218 220 0.582909
r2839 218 1200 10
r2840 216 1502 0.344888
r2841 216 1500 0.796642
r2842 211 1487 0.7517
r2843 211 289 10
r2844 209 211 0.764228
r2845 209 289 10
r2846 207 209 0.7517
r2847 207 289 10
r2848 205 207 0.7517
r2849 205 289 10
r2850 203 1484 0.30117
r2851 203 1485 0.796642
r2852 198 1495 0.0220114
r2853 198 1493 0.0238874
r2854 198 1500 0.0238874
r2855 196 1495 1.57977
r2856 196 291 10
r2857 194 196 1.01328
r2858 194 291 10
r2859 189 1475 0.0220114
r2860 189 1469 0.0238874
r2861 189 1485 0.0238874
r2862 187 1475 1.1739
r2863 187 1196 10
r2864 185 187 0.752952
r2865 185 1196 10
r2866 172 1329 15
r2867 172 1310 10
r2868 172 795 10
r2869 172 793 30
r2870 172 773 15
r2871 172 764 10
r2872 172 762 30
r2873 172 742 15
r2874 172 733 10
r2875 172 731 30
r2876 172 711 15
r2877 172 702 10
r2878 172 700 30
r2879 172 680 15
r2880 172 671 10
r2881 172 669 10
r2882 172 667 15
r2883 172 658 10
r2884 172 656 10
r2885 172 654 15
r2886 172 645 10
r2887 172 643 10
r2888 172 641 15
r2889 172 632 10
r2890 172 630 10
r2891 172 628 15
r2892 172 619 10
r2893 172 617 10
r2894 172 615 15
r2895 172 606 10
r2896 172 604 10
r2897 172 602 15
r2898 172 593 10
r2899 172 591 10
r2900 172 589 15
r2901 172 580 10
r2902 172 578 10
r2903 172 576 15
r2904 172 567 10
r2905 172 565 10
r2906 172 563 15
r2907 172 554 10
r2908 172 552 10
r2909 172 550 15
r2910 172 541 10
r2911 172 539 10
r2912 172 537 15
r2913 172 461 15
r2914 172 448 15
r2915 172 435 15
r2916 172 430 15
r2917 172 421 15
r2918 172 345 15
r2919 172 332 15
r2920 172 319 15
r2921 172 314 15
r2922 172 305 15
r2923 172 229 15
r2924 172 216 15
r2925 172 203 15
r2926 172 198 15
r2927 172 189 15
r2928 121 1463 0.582909
r2929 121 1192 10
r2930 119 121 0.592624
r2931 119 1192 10
r2932 117 119 0.582909
r2933 117 1192 10
r2934 115 117 0.582909
r2935 115 1192 10
r2936 113 1449 0.30117
r2937 113 1452 0.587766
r2938 113 172 15
r2939 108 1216 0.582909
r2940 108 1190 10
r2941 106 108 0.592624
r2942 106 1190 10
r2943 104 106 0.582909
r2944 104 1190 10
r2945 102 104 0.582909
r2946 102 1190 10
r2947 100 1452 0.344888
r2948 100 1450 0.796642
r2949 100 172 15
r2950 95 1437 0.7517
r2951 95 173 10
r2952 93 95 0.764228
r2953 93 173 10
r2954 91 93 0.7517
r2955 91 173 10
r2956 89 91 0.7517
r2957 89 173 10
r2958 87 1425 0.30117
r2959 87 1426 0.796642
r2960 87 172 15
r2961 82 1445 0.0220114
r2962 82 1443 0.0238874
r2963 82 1450 0.0238874
r2964 82 172 15
r2965 80 1445 1.57977
r2966 80 175 10
r2967 78 80 1.01328
r2968 78 175 10
r2969 73 1421 0.0220114
r2970 73 1419 0.0238874
r2971 73 1426 0.0238874
r2972 73 172 15
r2973 71 1421 1.1739
r2974 71 1184 10
r2975 69 71 0.752952
r2976 69 1184 10
r2977 64 1238 0.582909
r2978 64 1144 10
r2979 62 64 0.592624
r2980 62 1144 10
r2981 60 62 0.582909
r2982 60 1144 10
r2983 58 60 0.582909
r2984 58 1144 10
r2985 56 1244 0.796642
r2986 56 1245 0.30117
r2987 56 172 15
r2988 51 1354 0.0220114
r2989 51 1352 0.0238874
r2990 51 1359 0.0238874
r2991 51 172 15
r2992 49 1354 1.1739
r2993 49 1168 10
r2994 47 49 0.752952
r2995 47 1168 10
r2996 42 1312 0.0220114
r2997 42 1301 0.0238874
r2998 42 1317 0.0238874
r2999 42 172 15
r3000 40 1312 1.1739
r3001 40 1162 10
r3002 38 40 0.752952
r3003 38 1162 10
r3004 33 1303 0.0220114
r3005 33 1287 0.0238874
r3006 33 1308 0.0238874
r3007 33 172 15
r3008 31 1303 1.1739
r3009 31 1160 10
r3010 29 31 0.752952
r3011 29 1160 10
r3012 24 1283 0.0220114
r3013 24 1265 0.0238874
r3014 24 1293 0.0238874
r3015 24 172 15
r3016 22 1283 1.1739
r3017 22 1154 10
r3018 20 22 0.752952
r3019 20 1154 10
r3020 15 1255 0.0220114
r3021 15 1244 0.0238874
r3022 15 1260 0.0238874
r3023 15 172 15
r3024 13 1255 1.1739
r3025 13 1148 10
r3026 11 13 0.752952
r3027 11 1148 10
r3028 6 1233 0.222477
r3029 6 1224 0.0250874
r3030 6 172 15
r3031 4 1224 1.1739
r3032 4 1140 10
r3033 2 4 0.752952
r3034 2 1140 10
.ends

.subckt PM_SECDED%XI30/XI0/NET016 2 27
r20 24 27 30
r21 21 24 0.388606
r22 21 27 10
r23 18 21 0.582909
r24 18 27 10
r25 15 18 0.582909
r26 15 27 10
r27 12 15 0.582909
r28 12 27 10
r29 9 12 0.582909
r30 9 27 10
r31 6 9 0.582909
r32 6 27 10
r33 2 6 0.582909
r34 2 27 10
.ends

.subckt PM_SECDED%VDD! 10 24 30 40 52 58 68 72 94 106 118 132 146 158 170 182
+ 194 206 309 323 337 349 361 373 385 397 500 514 528 540 552 564 576 588 691
+ 705 719 731 743 755 767 779 874 900 918 928 946 964 982 1000 1018 1036 1054
+ 1072 1082 1098 1110 1132 1158 1170 1184 1210 1222 1236 1262 1274 2007 2008
+ 2010 2012 2014 2016 2019 2021 2023 2025 2027 2029 2031 2033 2035 2037 2039
+ 2041 2044 2046 2048 2050 2052 2055 2057 2059 2061 2064 2066 2068 2070 2072
+ 2074 2076 2078 2080 2082 2084 2086 2088 2090 2092 2094 2096 2098 2100 2102
+ 2104 2106 2108 2110 2112 2114 2116 2118 2120 2122 2124 2126 2128 2130 2132
+ 2134 2136 2138 2141 2142 2143 2144 2145 2160 2162 2172 2189 2205 2214 2215
+ 2226 2245 2250 2262 2271 2286 2291 2295 2319 2328 2345 2355 2356 2367 2376
+ 2386 2396 2408 2417 2427 2437 2449 2458 2467 2479 2489 2498 2514 2519 2529
+ 2538 2548 2564 2569 2578 2588 2597 2615 2625 2634 2644 2653 2662 2672 2681
+ 2690 2700 2709 2719 2728 2737 2756 2765 2784 2806 2817 2821 2824 2828 2833
+ 2838 2860
c2762 2784 0 3.90378e-19
c2763 2765 0 3.90378e-19
c2764 2756 0 1.95189e-19
c2765 2737 0 3.90378e-19
c2766 2728 0 1.95189e-19
c2767 2709 0 3.85614e-19
c2768 2690 0 3.85614e-19
c2769 2681 0 1.92807e-19
c2770 2662 0 3.85614e-19
c2771 2653 0 1.92807e-19
c2772 2634 0 3.85614e-19
c2773 2615 0 3.85614e-19
c2774 2597 0 1.92807e-19
c2775 2578 0 3.85614e-19
c2776 2569 0 1.92807e-19
c2777 2538 0 3.85614e-19
c2778 2519 0 3.85614e-19
c2779 2498 0 1.92807e-19
c2780 2479 0 3.85614e-19
c2781 2458 0 1.92807e-19
c2782 2449 0 1.92807e-19
c2783 2417 0 3.85614e-19
c2784 2408 0 1.92807e-19
c2785 2376 0 3.85614e-19
c2786 2367 0 1.92807e-19
c2787 2328 0 3.85614e-19
c2788 2295 0 1.49258e-19
c2789 2271 0 1.92807e-19
c2790 2245 0 1.92807e-19
c2791 2189 0 1.92807e-19
c2792 2172 0 3.85614e-19
c2793 2144 0 1.92807e-19
c2794 2141 0 8.19317e-20
c2795 2136 0 1.03218e-19
c2796 2134 0 1.98015e-19
c2797 2128 0 1.34736e-19
c2798 2124 0 1.06238e-19
c2799 2120 0 1.03218e-19
c2800 2118 0 1.98015e-19
c2801 2112 0 1.34736e-19
c2802 2108 0 1.06238e-19
c2803 2104 0 1.03218e-19
c2804 2102 0 1.98015e-19
c2805 2094 0 1.34736e-19
c2806 2084 0 1.03218e-19
c2807 2082 0 1.98015e-19
c2808 2074 0 1.34736e-19
c2809 2055 0 1.76058e-19
c2810 2046 0 8.39135e-20
c2811 2044 0 1.00808e-19
c2812 2037 0 1.89001e-19
c2813 2021 0 1.97998e-19
c2814 2008 0 3.83453e-19
c2815 2007 0 5.57699e-19
c2816 1236 0 1.5009e-19
c2817 1184 0 1.5009e-19
c2818 1132 0 1.5009e-19
c2819 1072 0 1.5009e-19
c2820 874 0 9.90373e-20
c2821 691 0 1.82565e-19
c2822 500 0 1.82565e-19
r2823 2799 2800 0.0891992
r2824 2785 2857 0.0206178
r2825 2784 2787 0.053567
r2826 2777 2857 0.026159
r2827 2776 2856 0.0206178
r2828 2775 2857 0.0206178
r2829 2775 2776 0.291055
r2830 2768 2856 0.026159
r2831 2766 2855 0.0206178
r2832 2765 2856 0.0206178
r2833 2758 2855 0.026159
r2834 2756 2855 0.0206178
r2835 2756 2757 0.507267
r2836 2748 2853 0.0206178
r2837 2747 2748 0.291055
r2838 2740 2853 0.026159
r2839 2738 2852 0.0206178
r2840 2737 2853 0.0206178
r2841 2730 2852 0.026159
r2842 2728 2852 0.0206178
r2843 2728 2729 0.507267
r2844 2720 2850 0.0206178
r2845 2719 2720 0.291055
r2846 2712 2850 0.026159
r2847 2710 2849 0.0206178
r2848 2709 2850 0.0206178
r2849 2702 2849 0.026159
r2850 2701 2848 0.0206178
r2851 2700 2849 0.0206178
r2852 2700 2701 0.291055
r2853 2693 2848 0.026159
r2854 2691 2847 0.0206178
r2855 2690 2848 0.0206178
r2856 2683 2847 0.026159
r2857 2681 2847 0.0206178
r2858 2681 2682 0.507267
r2859 2673 2845 0.0206178
r2860 2672 2673 0.291055
r2861 2665 2845 0.026159
r2862 2663 2844 0.0206178
r2863 2662 2845 0.0206178
r2864 2655 2844 0.026159
r2865 2653 2844 0.0206178
r2866 2653 2654 0.507267
r2867 2645 2842 0.0206178
r2868 2644 2645 0.291055
r2869 2637 2842 0.026159
r2870 2635 2841 0.0206178
r2871 2634 2842 0.0206178
r2872 2627 2841 0.026159
r2873 2626 2840 0.0206178
r2874 2625 2841 0.0206178
r2875 2625 2626 0.291055
r2876 2618 2840 0.026159
r2877 2616 2839 0.0206178
r2878 2615 2840 0.0206178
r2879 2608 2839 0.026159
r2880 2599 2838 0.0565869
r2881 2597 2839 0.0206178
r2882 2597 2598 0.507267
r2883 2589 2836 0.0206178
r2884 2588 2589 0.291055
r2885 2581 2836 0.026159
r2886 2579 2835 0.0206178
r2887 2578 2836 0.0206178
r2888 2571 2835 0.026159
r2889 2569 2835 0.0206178
r2890 2569 2570 0.507267
r2891 2565 2833 0.00666941
r2892 2564 2838 0.00666941
r2893 2550 2833 0.0565869
r2894 2549 2832 0.0206178
r2895 2548 2549 0.291055
r2896 2541 2832 0.026159
r2897 2539 2831 0.0206178
r2898 2538 2832 0.0206178
r2899 2531 2831 0.026159
r2900 2530 2830 0.0206178
r2901 2529 2831 0.0206178
r2902 2529 2530 0.291055
r2903 2522 2830 0.026159
r2904 2520 2829 0.0206178
r2905 2519 2830 0.0206178
r2906 2515 2828 0.00666941
r2907 2514 2833 0.00666941
r2908 2507 2829 0.026159
r2909 2500 2828 0.0565869
r2910 2498 2829 0.0206178
r2911 2498 2499 0.507267
r2912 2490 2826 0.0206178
r2913 2489 2490 0.291055
r2914 2482 2826 0.026159
r2915 2480 2825 0.0206178
r2916 2479 2826 0.0206178
r2917 2472 2825 0.026159
r2918 2468 2824 0.00666941
r2919 2467 2828 0.00666941
r2920 2460 2824 0.0565869
r2921 2458 2825 0.0206178
r2922 2458 2459 0.507267
r2923 2449 2450 0.507267
r2924 2438 2821 0.00666941
r2925 2437 2824 0.00666941
r2926 2430 2821 0.0565869
r2927 2428 2820 0.0206178
r2928 2420 2820 0.026159
r2929 2418 2819 0.0206178
r2930 2417 2820 0.0206178
r2931 2410 2819 0.026159
r2932 2408 2819 0.0206178
r2933 2408 2409 0.507267
r2934 2397 2817 0.00666941
r2935 2396 2821 0.00666941
r2936 2389 2817 0.0565869
r2937 2387 2816 0.0206178
r2938 2379 2816 0.026159
r2939 2377 2815 0.0206178
r2940 2376 2816 0.0206178
r2941 2369 2815 0.026159
r2942 2367 2815 0.0206178
r2943 2367 2368 0.507267
r2944 2355 2817 0.00666941
r2945 2346 2811 0.0206178
r2946 2338 2812 0.0753595
r2947 2331 2811 0.026159
r2948 2329 2810 0.0206178
r2949 2328 2811 0.0206178
r2950 2321 2810 0.026159
r2951 2320 2809 0.0206178
r2952 2319 2810 0.0206178
r2953 2319 2320 0.320992
r2954 2317 2860 30
r2955 2314 2317 0.388606
r2956 2314 2860 10
r2957 2311 2314 0.582909
r2958 2311 2860 10
r2959 2308 2311 0.582909
r2960 2308 2860 10
r2961 2305 2308 0.582909
r2962 2305 2860 10
r2963 2302 2305 0.582909
r2964 2302 2860 10
r2965 2299 2302 0.582909
r2966 2299 2860 10
r2967 2295 2299 0.582909
r2968 2295 2860 10
r2969 2293 2809 0.026159
r2970 2293 2317 0.382777
r2971 2286 2812 0.00912264
r2972 2274 2277 0.332634
r2973 2272 2274 0.505604
r2974 2271 2809 0.0206178
r2975 2271 2277 0.209559
r2976 2263 2806 0.00666941
r2977 2262 2263 0.123663
r2978 2255 2806 0.0565869
r2979 2250 2806 0.00666941
r2980 2246 2804 0.0206178
r2981 2231 2804 0.026159
r2982 2227 2803 0.0206178
r2983 2226 2804 0.0206178
r2984 2219 2803 0.026159
r2985 2215 2800 0.00912264
r2986 2207 2800 0.0753595
r2987 2205 2803 0.0206178
r2988 2205 2206 0.291055
r2989 2191 2799 0.0753595
r2990 2190 2801 0.0206178
r2991 2189 2190 0.507267
r2992 2182 2801 0.026159
r2993 2175 2797 0.0753595
r2994 2173 2796 0.0206178
r2995 2172 2801 0.0206178
r2996 2165 2796 0.026159
r2997 2162 2797 0.00912264
r2998 2160 2796 0.0206178
r2999 2160 2161 0.291055
r3000 2144 2145 0.494793
r3001 2142 2143 0.121433
r3002 2141 2145 0.0654517
r3003 2140 2143 0.0442787
r3004 2140 2141 3.30706
r3005 2008 2277 15
r3006 2008 2274 10
r3007 1276 2427 0.607057
r3008 1276 2428 0.0748427
r3009 1276 2008 15
r3010 1274 2061 10
r3011 1272 1274 0.7517
r3012 1272 2061 10
r3013 1270 1272 0.7517
r3014 1270 2061 10
r3015 1268 1270 0.7517
r3016 1268 2061 10
r3017 1266 2420 0.507397
r3018 1266 1268 0.501133
r3019 1266 2061 30
r3020 1264 2417 0.182949
r3021 1264 2418 0.174633
r3022 1264 2008 10
r3023 1262 2059 10
r3024 1260 1262 0.7517
r3025 1260 2059 10
r3026 1258 1260 0.7517
r3027 1258 2059 10
r3028 1256 1258 0.7517
r3029 1256 2059 10
r3030 1254 2410 0.507397
r3031 1254 1256 0.501133
r3032 1254 2059 30
r3033 1238 2442 0.026159
r3034 1238 2427 0.0206178
r3035 1238 2450 0.0206178
r3036 1238 2008 15
r3037 1236 2066 10
r3038 1234 1236 0.752952
r3039 1234 2066 10
r3040 1232 1234 0.752952
r3041 1232 2066 10
r3042 1230 1232 0.752952
r3043 1230 2066 10
r3044 1228 2442 1.62117
r3045 1228 1230 0.502386
r3046 1228 2066 15
r3047 1224 2386 0.607057
r3048 1224 2387 0.0748427
r3049 1224 2008 15
r3050 1222 2052 10
r3051 1220 1222 0.7517
r3052 1220 2052 10
r3053 1218 1220 0.7517
r3054 1218 2052 10
r3055 1216 1218 0.7517
r3056 1216 2052 10
r3057 1214 2379 0.507397
r3058 1214 1216 0.501133
r3059 1214 2052 30
r3060 1212 2376 0.182949
r3061 1212 2377 0.174633
r3062 1212 2008 10
r3063 1210 2050 10
r3064 1208 1210 0.7517
r3065 1208 2050 10
r3066 1206 1208 0.7517
r3067 1206 2050 10
r3068 1204 1206 0.7517
r3069 1204 2050 10
r3070 1202 2369 0.507397
r3071 1202 1204 0.501133
r3072 1202 2050 30
r3073 1186 2401 0.026159
r3074 1186 2386 0.0206178
r3075 1186 2409 0.0206178
r3076 1186 2008 15
r3077 1184 2057 10
r3078 1182 1184 0.752952
r3079 1182 2057 10
r3080 1180 1182 0.752952
r3081 1180 2057 10
r3082 1178 1180 0.752952
r3083 1178 2057 10
r3084 1176 2401 1.62117
r3085 1176 1178 0.502386
r3086 1176 2057 15
r3087 1172 2345 0.607057
r3088 1172 2346 0.0748427
r3089 1172 2008 15
r3090 1170 2041 10
r3091 1168 1170 0.7517
r3092 1168 2041 10
r3093 1166 1168 0.7517
r3094 1166 2041 10
r3095 1164 1166 0.7517
r3096 1164 2041 10
r3097 1162 2331 0.507397
r3098 1162 1164 0.501133
r3099 1162 2041 30
r3100 1160 2328 0.182949
r3101 1160 2329 0.174633
r3102 1160 2008 10
r3103 1158 2039 10
r3104 1156 1158 0.7517
r3105 1156 2039 10
r3106 1154 1156 0.7517
r3107 1154 2039 10
r3108 1152 1154 0.7517
r3109 1152 2039 10
r3110 1150 2321 0.507397
r3111 1150 1152 0.501133
r3112 1150 2039 30
r3113 1134 2360 0.026159
r3114 1134 2345 0.0206178
r3115 1134 2368 0.0206178
r3116 1134 2008 15
r3117 1132 2048 10
r3118 1130 1132 0.752952
r3119 1130 2048 10
r3120 1128 1130 0.752952
r3121 1128 2048 10
r3122 1126 1128 0.752952
r3123 1126 2048 10
r3124 1124 2360 1.62117
r3125 1124 1126 0.502386
r3126 1124 2048 15
r3127 1120 2162 0.0182453
r3128 1120 2163 0.14799
r3129 1120 2007 15
r3130 1118 2016 10
r3131 1116 1118 0.7517
r3132 1116 2016 10
r3133 1114 1116 0.7517
r3134 1114 2016 10
r3135 1112 1114 0.7517
r3136 1112 2016 10
r3137 1110 1112 0.501133
r3138 1110 2175 0.507397
r3139 1110 2016 30
r3140 1108 2799 0.051695
r3141 1108 2797 0.0537222
r3142 1108 2007 10
r3143 1106 2021 10
r3144 1104 1106 0.7517
r3145 1104 2021 10
r3146 1102 1104 0.7517
r3147 1102 2021 10
r3148 1100 1102 0.7517
r3149 1100 2021 10
r3150 1098 1100 0.501133
r3151 1098 2191 0.507397
r3152 1098 2021 30
r3153 1082 2153 0.0565869
r3154 1082 2142 0.00666941
r3155 1082 2163 0.00666941
r3156 1082 2007 15
r3157 1080 2012 10
r3158 1078 1080 0.752952
r3159 1078 2012 10
r3160 1076 1078 0.752952
r3161 1076 2012 10
r3162 1074 1076 0.752952
r3163 1074 2012 10
r3164 1072 1074 0.502386
r3165 1072 2153 1.62117
r3166 1072 2012 15
r3167 1068 2564 0.0314224
r3168 1068 2007 10
r3169 1066 1068 0.121635
r3170 1066 2007 10
r3171 1064 1066 0.0810902
r3172 1064 2565 0.128731
r3173 1064 2007 15
r3174 1062 2098 10
r3175 1060 1062 0.752952
r3176 1060 2098 10
r3177 1058 1060 0.752952
r3178 1058 2098 10
r3179 1056 1058 0.752952
r3180 1056 2098 10
r3181 1054 1056 0.502386
r3182 1054 2599 1.62117
r3183 1054 2098 15
r3184 1050 2514 0.0314224
r3185 1050 2007 10
r3186 1048 1050 0.121635
r3187 1048 2007 10
r3188 1046 1048 0.0810902
r3189 1046 2515 0.128731
r3190 1046 2007 15
r3191 1044 2088 10
r3192 1042 1044 0.752952
r3193 1042 2088 10
r3194 1040 1042 0.752952
r3195 1040 2088 10
r3196 1038 1040 0.752952
r3197 1038 2088 10
r3198 1036 1038 0.502386
r3199 1036 2550 1.62117
r3200 1036 2088 15
r3201 1032 2467 0.0314224
r3202 1032 2007 10
r3203 1030 1032 0.121635
r3204 1030 2007 10
r3205 1028 1030 0.0810902
r3206 1028 2468 0.128731
r3207 1028 2007 15
r3208 1026 2078 10
r3209 1024 1026 0.752952
r3210 1024 2078 10
r3211 1022 1024 0.752952
r3212 1022 2078 10
r3213 1020 1022 0.752952
r3214 1020 2078 10
r3215 1018 1020 0.502386
r3216 1018 2500 1.62117
r3217 1018 2078 15
r3218 1014 2437 0.0314224
r3219 1014 2007 10
r3220 1012 1014 0.121635
r3221 1012 2007 10
r3222 1010 1012 0.0810902
r3223 1010 2438 0.128731
r3224 1010 2007 15
r3225 1008 2070 10
r3226 1006 1008 0.752952
r3227 1006 2070 10
r3228 1004 1006 0.752952
r3229 1004 2070 10
r3230 1002 1004 0.752952
r3231 1002 2070 10
r3232 1000 1002 0.502386
r3233 1000 2460 1.62117
r3234 1000 2070 15
r3235 996 2396 0.0314224
r3236 996 2007 10
r3237 994 996 0.121635
r3238 994 2007 10
r3239 992 994 0.0810902
r3240 992 2397 0.128731
r3241 992 2007 15
r3242 990 2064 10
r3243 988 990 0.752952
r3244 988 2064 10
r3245 986 988 0.752952
r3246 986 2064 10
r3247 984 986 0.752952
r3248 984 2064 10
r3249 982 984 0.502386
r3250 982 2430 1.62117
r3251 982 2064 15
r3252 978 2355 0.0314224
r3253 978 2007 10
r3254 976 978 0.121635
r3255 976 2007 10
r3256 974 976 0.0810902
r3257 974 2356 0.181439
r3258 974 2007 15
r3259 972 2055 10
r3260 970 972 0.752952
r3261 970 2055 10
r3262 968 970 0.752952
r3263 968 2055 10
r3264 966 968 0.752952
r3265 966 2055 10
r3266 964 966 0.502386
r3267 964 2389 1.62117
r3268 964 2055 15
r3269 960 2286 0.0314224
r3270 960 2291 0.0585876
r3271 960 2007 10
r3272 958 2291 0.0630476
r3273 958 2007 10
r3274 956 958 0.0810902
r3275 956 2287 0.128731
r3276 956 2007 15
r3277 954 2044 10
r3278 952 954 0.752952
r3279 952 2044 10
r3280 950 952 0.752952
r3281 950 2044 10
r3282 948 950 0.752952
r3283 948 2044 10
r3284 946 948 0.502386
r3285 946 2338 1.62117
r3286 946 2044 15
r3287 942 2250 0.0314224
r3288 942 2007 10
r3289 940 942 0.121635
r3290 940 2007 10
r3291 938 940 0.0810902
r3292 938 2251 0.128528
r3293 938 2007 15
r3294 936 2033 10
r3295 934 936 0.752952
r3296 934 2033 10
r3297 932 934 0.752952
r3298 932 2033 10
r3299 930 932 0.752952
r3300 930 2033 10
r3301 928 930 0.502386
r3302 928 2255 1.62117
r3303 928 2033 15
r3304 924 2246 0.128896
r3305 924 2008 10
r3306 922 924 0.498951
r3307 922 2008 10
r3308 920 2245 0.744269
r3309 920 922 0.332634
r3310 920 2008 15
r3311 918 2031 10
r3312 916 918 0.752952
r3313 916 2031 10
r3314 914 916 0.752952
r3315 914 2031 10
r3316 912 914 0.752952
r3317 912 2031 10
r3318 910 2231 1.62117
r3319 910 912 0.502386
r3320 910 2031 15
r3321 906 2227 0.128896
r3322 906 2008 10
r3323 904 906 0.498951
r3324 904 2008 10
r3325 902 2226 0.528057
r3326 902 904 0.332634
r3327 902 2008 15
r3328 900 2027 10
r3329 898 900 0.752952
r3330 898 2027 10
r3331 896 898 0.752952
r3332 896 2027 10