* File: fsm.pex.netlist.pex
* Created: Wed May  4 02:31:49 2022
* Program "Calibre xRC"
* Version "v2013.2_18.13"
* Nominal Temperature: 27C
* Circuit Temperature: 27C
* 
.subckt PM_FSM%XI32/NET4 4 7 8 10 24 28 30 31 33 34 38 39 42 44 45 48 55 79 83
+ 86 87 89 90 91 92 93
c163 93 0 1.43396e-19
c164 86 0 1.39595e-19
c165 45 0 1.20696e-19
c166 42 0 3.84403e-19
c167 38 0 2.29577e-19
c168 30 0 1.95189e-19
r169 88 89 0.0686638
r170 86 87 0.0686638
r171 83 93 10
r172 81 83 0.444756
r173 80 90 0.00944082
r174 79 81 0.0479332
r175 79 80 0.851426
r176 76 91 30
r177 73 76 0.388606
r178 73 91 10
r179 70 73 0.582909
r180 70 91 10
r181 67 70 0.582909
r182 67 91 10
r183 64 67 0.582909
r184 64 91 10
r185 61 64 0.582909
r186 61 91 10
r187 58 61 0.582909
r188 58 91 10
r189 55 58 0.582909
r190 55 89 0.344888
r191 55 91 10
r192 51 90 0.0363272
r193 51 87 0.0874363
r194 48 92 10
r195 46 90 0.0363272
r196 46 48 0.344888
r197 42 45 0.104515
r198 40 45 1.08844
r199 38 40 0.0477651
r200 38 39 0.892108
r201 36 39 0.0477651
r202 36 44 0.124442
r203 34 88 0.0960611
r204 34 86 0.0836297
r205 33 34 1.7
r206 31 44 0.0762188
r207 31 33 0.0832135
r208 24 30 153.887
r209 23 28 69.9487
r210 10 12 25
r211 9 42 0.0248839
r212 9 10 1.7
r213 7 12 4.17508
r214 7 8 0.833027
r215 5 8 5.18609
r216 5 24 16.0034
r217 4 8 5.18609
r218 4 23 16.0034
.ends

.subckt PM_FSM%GND! 4 13 26 39 52 54 167 168 198 314 344 346 460 490 606 912 914
+ 916 918 920 922 924 926 928 930 932 934 936 938 940 942 944 946 948 950 952
+ 954 956 958 960 962 964 966 992 999 1002 1008 1014 1023 1039 1048 1051 1069
+ 1078 1097 1117 1135 1142 1144
c1382 1097 0 1.91153e-19
c1383 992 0 1.39595e-19
c1384 966 0 1.98328e-19
c1385 964 0 1.98328e-19
c1386 954 0 1.54273e-19
c1387 948 0 1.879e-19
c1388 942 0 8.36561e-20
c1389 938 0 1.54273e-19
c1390 932 0 1.879e-19
c1391 928 0 1.97872e-19
c1392 920 0 1.879e-19
c1393 914 0 7.52499e-20
c1394 912 0 1.98328e-19
c1395 606 0 1.48417e-19
c1396 460 0 1.48417e-19
c1397 344 0 1.23012e-19
c1398 314 0 1.48417e-19
c1399 198 0 1.20293e-19
c1400 168 0 1.48417e-19
c1401 167 0 0.00201202f
c1402 52 0 1.91575e-19
r1403 1126 1144 10
r1404 1123 1126 0.582909
r1405 1123 1144 10
r1406 1120 1123 0.582909
r1407 1120 1144 10
r1408 1117 1120 0.592624
r1409 1117 1144 10
r1410 1115 1117 0.582909
r1411 1110 1113 0.451754
r1412 1098 1099 0.646282
r1413 1097 1115 0.0515295
r1414 1097 1113 0.0437182
r1415 1079 1080 0.646282
r1416 1070 1135 0.0238874
r1417 1065 1135 0.0220114
r1418 1051 1052 0.54564
r1419 1049 1051 0.100642
r1420 1048 1135 0.0238874
r1421 1040 1133 0.0238874
r1422 1035 1133 0.0220114
r1423 1024 1025 0.646282
r1424 1023 1133 0.0238874
r1425 1015 1131 0.0238874
r1426 1010 1131 0.0220114
r1427 1008 1131 0.0238874
r1428 1008 1009 0.601881
r1429 1003 1129 0.0238874
r1430 1002 1003 0.653467
r1431 999 1142 10
r1432 997 1129 0.0220114
r1433 997 999 0.535305
r1434 992 1129 0.0238874
r1435 992 994 0.0437182
r1436 989 1106 0.0250874
r1437 988 1102 0.0250874
r1438 987 1099 0.0250874
r1439 985 1091 0.0250874
r1440 982 1087 0.0250874
r1441 981 1083 0.0250874
r1442 980 1080 0.0250874
r1443 978 1063 0.0250874
r1444 975 1059 0.0250874
r1445 974 1055 0.0250874
r1446 973 1052 0.0250874
r1447 970 1032 0.0250874
r1448 969 1028 0.0250874
r1449 968 1025 0.0250874
r1450 703 985 0.582909
r1451 703 954 10
r1452 701 703 0.592624
r1453 701 954 10
r1454 699 701 0.582909
r1455 699 954 10
r1456 697 699 0.582909
r1457 697 954 10
r1458 695 1091 0.350275
r1459 690 1078 0.646282
r1460 690 986 0.0250874
r1461 690 1091 0.434144
r1462 688 986 1.1739
r1463 688 956 10
r1464 686 688 0.752952
r1465 686 956 10
r1466 651 978 0.582909
r1467 651 938 10
r1468 649 651 0.592624
r1469 649 938 10
r1470 647 649 0.582909
r1471 647 938 10
r1472 645 647 0.582909
r1473 645 938 10
r1474 643 1063 0.350275
r1475 638 1048 0.646282
r1476 638 979 0.0250874
r1477 638 1063 0.434144
r1478 636 979 1.1739
r1479 636 940 10
r1480 634 636 0.752952
r1481 634 940 10
r1482 549 989 0.582909
r1483 549 606 10
r1484 547 549 0.592624
r1485 547 606 10
r1486 545 547 0.582909
r1487 545 606 10
r1488 543 545 0.582909
r1489 543 606 10
r1490 541 1106 0.350275
r1491 536 1102 0.197338
r1492 534 541 0.636416
r1493 534 536 0.4009
r1494 532 988 0.923338
r1495 532 962 10
r1496 530 532 0.582909
r1497 530 962 10
r1498 528 530 0.389577
r1499 528 962 30
r1500 523 1099 0.197338
r1501 521 1102 0.473612
r1502 521 523 0.4009
r1503 519 987 0.923338
r1504 519 960 10
r1505 517 519 0.582909
r1506 517 960 10
r1507 515 517 0.389577
r1508 515 960 30
r1509 510 1110 1.11989
r1510 510 991 0.0250874
r1511 508 991 1.1739
r1512 508 966 10
r1513 506 508 0.752952
r1514 506 966 10
r1515 501 510 0.690684
r1516 501 990 0.0250874
r1517 501 1106 0.434144
r1518 499 990 1.1739
r1519 499 964 10
r1520 497 499 0.752952
r1521 497 964 10
r1522 492 1093 0.0220114
r1523 492 1078 0.0238874
r1524 492 1098 0.0238874
r1525 490 1093 1.1739
r1526 490 958 10
r1527 488 490 0.752952
r1528 488 958 10
r1529 403 982 0.582909
r1530 403 460 10
r1531 401 403 0.592624
r1532 401 460 10
r1533 399 401 0.582909
r1534 399 460 10
r1535 397 399 0.582909
r1536 397 460 10
r1537 395 1087 0.350275
r1538 390 1083 0.197338
r1539 388 395 0.636416
r1540 388 390 0.4009
r1541 386 981 0.923338
r1542 386 948 10
r1543 384 386 0.582909
r1544 384 948 10
r1545 382 384 0.389577
r1546 382 948 30
r1547 377 1080 0.197338
r1548 375 1083 0.473612
r1549 375 377 0.4009
r1550 373 980 0.923338
r1551 373 946 10
r1552 371 373 0.582909
r1553 371 946 10
r1554 369 371 0.389577
r1555 369 946 30
r1556 364 695 0.853487
r1557 364 984 0.0250874
r1558 362 984 1.1739
r1559 362 952 10
r1560 360 362 0.752952
r1561 360 952 10
r1562 355 364 0.690684
r1563 355 983 0.0250874
r1564 355 1087 0.434144
r1565 353 983 1.1739
r1566 353 950 10
r1567 351 353 0.752952
r1568 351 950 10
r1569 346 1074 0.0220114
r1570 346 1069 0.0238874
r1571 346 1079 0.0238874
r1572 344 1074 1.1739
r1573 344 944 10
r1574 342 344 0.752952
r1575 342 944 10
r1576 257 975 0.582909
r1577 257 314 10
r1578 255 257 0.592624
r1579 255 314 10
r1580 253 255 0.582909
r1581 253 314 10
r1582 251 253 0.582909
r1583 251 314 10
r1584 249 1059 0.350275
r1585 244 1055 0.197338
r1586 242 249 0.636416
r1587 242 244 0.4009
r1588 240 974 0.923338
r1589 240 932 10
r1590 238 240 0.582909
r1591 238 932 10
r1592 236 238 0.389577
r1593 236 932 30
r1594 231 1052 0.197338
r1595 229 1055 0.473612
r1596 229 231 0.4009
r1597 227 973 0.923338
r1598 227 930 10
r1599 225 227 0.582909
r1600 225 930 10
r1601 223 225 0.389577
r1602 223 930 30
r1603 218 643 0.853487
r1604 218 977 0.0250874
r1605 216 977 1.1739
r1606 216 936 10
r1607 214 216 0.752952
r1608 214 936 10
r1609 209 218 0.690684
r1610 209 976 0.0250874
r1611 209 1059 0.434144
r1612 207 976 1.1739
r1613 207 934 10
r1614 205 207 0.752952
r1615 205 934 10
r1616 200 1044 0.0220114
r1617 200 1039 0.0238874
r1618 200 1049 0.0238874
r1619 198 1044 1.1739
r1620 198 928 10
r1621 196 198 0.752952
r1622 196 928 10
r1623 167 1113 30
r1624 167 1110 10
r1625 167 994 10
r1626 167 695 15
r1627 167 690 15
r1628 167 643 15
r1629 167 638 15
r1630 167 541 15
r1631 167 536 10
r1632 167 534 30
r1633 167 523 10
r1634 167 521 30
r1635 167 510 15
r1636 167 501 15
r1637 167 492 15
r1638 167 395 15
r1639 167 390 10
r1640 167 388 30
r1641 167 377 10
r1642 167 375 30
r1643 167 364 15
r1644 167 355 15
r1645 167 346 15
r1646 167 249 15
r1647 167 244 10
r1648 167 242 30
r1649 167 231 10
r1650 167 229 30
r1651 167 218 15
r1652 167 209 15
r1653 167 200 15
r1654 111 970 0.582909
r1655 111 168 10
r1656 109 111 0.592624
r1657 109 168 10
r1658 107 109 0.582909
r1659 107 168 10
r1660 105 107 0.582909
r1661 105 168 10
r1662 103 1032 0.350275
r1663 103 167 15
r1664 98 1028 0.197338
r1665 98 167 10
r1666 96 103 0.636416
r1667 96 98 0.4009
r1668 96 167 30
r1669 94 969 0.923338
r1670 94 920 10
r1671 92 94 0.582909
r1672 92 920 10
r1673 90 92 0.389577
r1674 90 920 30
r1675 85 1025 0.197338
r1676 85 167 10
r1677 83 1028 0.473612
r1678 83 85 0.4009
r1679 83 167 30
r1680 81 968 0.923338
r1681 81 918 10
r1682 79 81 0.582909
r1683 79 918 10
r1684 77 79 0.389577
r1685 77 918 30
r1686 72 1023 0.646282
r1687 72 972 0.0250874
r1688 72 167 15
r1689 70 972 1.1739
r1690 70 924 10
r1691 68 70 0.752952
r1692 68 924 10
r1693 63 72 0.690684
r1694 63 971 0.0250874
r1695 63 1032 0.434144
r1696 63 167 15
r1697 61 971 1.1739
r1698 61 922 10
r1699 59 61 0.752952
r1700 59 922 10
r1701 54 1019 0.0220114
r1702 54 1014 0.0238874
r1703 54 1024 0.0238874
r1704 54 167 15
r1705 52 1019 1.1739
r1706 52 916 10
r1707 50 52 0.752952
r1708 50 916 10
r1709 45 1070 0.152937
r1710 45 167 10
r1711 43 45 0.592014
r1712 43 167 10
r1713 41 1069 0.626549
r1714 41 43 0.394676
r1715 41 167 15
r1716 39 1065 1.1739
r1717 39 942 10
r1718 37 39 0.752952
r1719 37 942 10
r1720 32 1040 0.152937
r1721 32 167 10
r1722 30 32 0.592014
r1723 30 167 10
r1724 28 1039 0.626549
r1725 28 30 0.394676
r1726 28 167 15
r1727 26 1035 1.1739
r1728 26 926 10
r1729 24 26 0.752952
r1730 24 926 10
r1731 19 1015 0.152937
r1732 19 167 10
r1733 17 19 0.592014
r1734 17 167 10
r1735 15 1014 0.626549
r1736 15 17 0.394676
r1737 15 167 15
r1738 13 1010 1.1739
r1739 13 914 10
r1740 11 13 0.752952
r1741 11 914 10
r1742 6 1004 0.0220114
r1743 6 1002 0.0238874
r1744 6 1009 0.0238874
r1745 6 167 15
r1746 4 1004 1.57977
r1747 4 912 10
r1748 2 4 1.01328
r1749 2 912 10
.ends

.subckt PM_FSM%NET14 4 6 10 12 15 20 22 23 28 33 34 35 38 39 42 43 46 51 67 82
+ 86 102 103 104 106 107 108 109 111 115 125 127
c287 51 0 1.5009e-19
c288 43 0 1.29229e-19
c289 42 0 4.29512e-19
c290 28 0 6.16957e-20
c291 23 0 1.5009e-19
c292 15 0 3.07761e-19
r293 125 127 51.4312
r294 115 116 25
r295 112 115 5.42761
r296 105 106 0.0611101
r297 103 104 0.0611101
r298 101 102 0.0883482
r299 98 109 30
r300 95 98 0.674397
r301 95 109 10
r302 92 95 1.01159
r303 92 109 10
r304 89 92 1.01159
r305 89 109 10
r306 86 89 1.01159
r307 86 109 10
r308 84 86 1.20717
r309 83 107 0.00944082
r310 82 84 0.0479332
r311 82 83 0.801813
r312 79 108 30
r313 76 79 0.388606
r314 76 108 10
r315 73 76 0.582909
r316 73 108 10
r317 70 73 0.582909
r318 70 108 10
r319 67 70 0.582909
r320 67 106 0.344888
r321 67 108 10
r322 63 107 0.0363272
r323 63 104 0.0874363
r324 61 111 10
r325 58 61 0.582909
r326 58 111 10
r327 55 58 0.582909
r328 55 111 10
r329 51 55 0.592624
r330 51 111 10
r331 49 107 0.0363272
r332 49 61 0.276882
r333 46 102 1.1077
r334 43 46 0.0479332
r335 41 42 3.31493
r336 39 127 0.140134
r337 38 41 0.0768026
r338 38 39 1.7
r339 34 101 0.168559
r340 33 35 0.124207
r341 33 34 1.7
r342 31 35 0.303328
r343 29 125 0.138537
r344 28 31 0.0738825
r345 28 29 1.7
r346 23 105 0.108876
r347 23 103 0.095715
r348 22 23 1.7
r349 20 42 0.0751032
r350 20 22 0.0832135
r351 15 116 0.0027608
r352 15 43 0.119496
r353 6 12 236.024
r354 5 112 3.12463
r355 5 6 16.0034
r356 4 112 3.12463
r357 3 10 31.3709
r358 3 4 34.9744
.ends

.subckt PM_FSM%VDD! 10 24 42 60 78 92 106 122 140 156 171 265 275 287 314 339
+ 353 367 383 401 417 432 526 536 548 575 600 614 628 644 662 678 693 787 797
+ 809 836 861 875 889 905 923 939 954 1048 1058 1070 1097 1122 1136 1151 1191
+ 1220 1234 1249 1289 1593 1594 1596 1598 1600 1602 1604 1606 1608 1610 1612
+ 1614 1616 1618 1620 1622 1624 1626 1628 1630 1632 1634 1636 1638 1640 1642
+ 1644 1646 1648 1650 1652 1654 1656 1658 1660 1662 1664 1666 1668 1670 1672
+ 1675 1678 1682 1689 1722 1731 1744 1752 1766 1767 1775 1783 1796 1804 1813
+ 1819 1834 1841 1871 1872 1874
c1523 1871 0 2.93594e-19
c1524 1834 0 3.90378e-19
c1525 1813 0 1.95189e-19
c1526 1804 0 1.95189e-19
c1527 1796 0 1.95189e-19
c1528 1775 0 1.95189e-19
c1529 1767 0 1.95189e-19
c1530 1744 0 1.95189e-19
c1531 1722 0 1.95189e-19
c1532 1656 0 1.80763e-19
c1533 1648 0 1.09585e-19
c1534 1636 0 1.80763e-19
c1535 1634 0 8.25232e-20
c1536 1614 0 1.80763e-19
c1537 1598 0 1.80763e-19
c1538 1596 0 7.52499e-20
c1539 1289 0 3.90378e-19
c1540 1220 0 1.74709e-19
c1541 1191 0 3.90378e-19
c1542 1122 0 1.74709e-19
c1543 1097 0 1.95189e-19
c1544 1048 0 3.90378e-19
c1545 923 0 8.59189e-20
c1546 836 0 1.95189e-19
c1547 787 0 3.90378e-19
c1548 662 0 8.59189e-20
c1549 575 0 1.95189e-19
c1550 526 0 3.90378e-19
c1551 401 0 8.59189e-20
c1552 314 0 1.95189e-19
c1553 265 0 3.90378e-19
c1554 140 0 8.59189e-20
r1555 1854 1874 30
r1556 1851 1854 0.501133
r1557 1851 1874 10
r1558 1848 1851 0.7517
r1559 1848 1874 10
r1560 1845 1848 0.7517
r1561 1845 1874 10
r1562 1841 1845 0.7517
r1563 1841 1874 10
r1564 1839 1854 0.507397
r1565 1835 1867 0.0206178
r1566 1835 1837 0.182949
r1567 1834 1839 0.053567
r1568 1834 1837 0.174633
r1569 1832 1872 30
r1570 1829 1832 0.501133
r1571 1829 1872 10
r1572 1826 1829 0.7517
r1573 1826 1872 10
r1574 1823 1826 0.7517
r1575 1823 1872 10
r1576 1819 1823 0.7517
r1577 1819 1872 10
r1578 1817 1867 0.026159
r1579 1817 1832 0.507397
r1580 1813 1867 0.0206178
r1581 1813 1815 0.0748427
r1582 1797 1865 0.026159
r1583 1796 1865 0.0206178
r1584 1784 1863 0.0206178
r1585 1776 1863 0.026159
r1586 1775 1863 0.0206178
r1587 1768 1862 0.026159
r1588 1767 1862 0.0206178
r1589 1764 1766 0.0831585
r1590 1753 1860 0.0206178
r1591 1745 1860 0.026159
r1592 1744 1860 0.0206178
r1593 1732 1858 0.0206178
r1594 1724 1858 0.026159
r1595 1722 1858 0.0206178
r1596 1722 1723 0.507267
r1597 1714 1856 0.0206178
r1598 1713 1714 0.29355
r1599 1711 1871 30
r1600 1708 1711 0.388606
r1601 1708 1871 10
r1602 1705 1708 0.582909
r1603 1705 1871 10
r1604 1702 1705 0.582909
r1605 1702 1871 10
r1606 1699 1702 0.582909
r1607 1699 1871 10
r1608 1696 1699 0.582909
r1609 1696 1871 10
r1610 1693 1696 0.582909
r1611 1693 1871 10
r1612 1689 1693 0.582909
r1613 1689 1871 10
r1614 1687 1856 0.026159
r1615 1687 1711 0.382777
r1616 1682 1856 0.0206178
r1617 1682 1684 0.227854
r1618 1679 1815 0.823269
r1619 1678 1812 0.507267
r1620 1677 1804 0.507267
r1621 1676 1796 0.507267
r1622 1675 1795 0.507267
r1623 1674 1775 0.507267
r1624 1673 1767 0.507267
r1625 1672 1766 0.424108
r1626 1671 1744 0.507267
r1627 1670 1743 0.507267
r1628 1593 1837 15
r1629 1593 1815 10
r1630 1593 1684 10
r1631 1298 1307 0.0206178
r1632 1297 1298 0.291055
r1633 1290 1307 0.026159
r1634 1289 1307 0.0206178
r1635 1288 1865 0.0206178
r1636 1249 1652 10
r1637 1247 1249 0.7517
r1638 1247 1652 10
r1639 1245 1247 0.7517
r1640 1245 1652 10
r1641 1243 1245 0.7517
r1642 1243 1652 10
r1643 1241 1290 0.507397
r1644 1241 1243 0.501133
r1645 1241 1652 30
r1646 1239 1289 0.32016
r1647 1239 1288 0.0374213
r1648 1239 1593 15
r1649 1234 1650 10
r1650 1232 1234 0.7517
r1651 1232 1650 10
r1652 1230 1232 0.7517
r1653 1230 1650 10
r1654 1228 1230 0.7517
r1655 1228 1650 10
r1656 1226 1797 0.507397
r1657 1226 1228 0.501133
r1658 1226 1650 30
r1659 1222 1299 0.026159
r1660 1222 1297 0.0206178
r1661 1222 1677 0.0206178
r1662 1222 1593 15
r1663 1220 1654 10
r1664 1218 1220 0.752952
r1665 1218 1654 10
r1666 1216 1218 0.752952
r1667 1216 1654 10
r1668 1214 1216 0.752952
r1669 1214 1654 10
r1670 1212 1299 1.62117
r1671 1212 1214 0.502386
r1672 1212 1654 15
r1673 1200 1209 0.0206178
r1674 1199 1200 0.291055
r1675 1192 1209 0.026159
r1676 1191 1209 0.0206178
r1677 1190 1862 0.0206178
r1678 1151 1630 10
r1679 1149 1151 0.7517
r1680 1149 1630 10
r1681 1147 1149 0.7517
r1682 1147 1630 10
r1683 1145 1147 0.7517
r1684 1145 1630 10
r1685 1143 1192 0.507397
r1686 1143 1145 0.501133
r1687 1143 1630 30
r1688 1141 1191 0.32016
r1689 1141 1190 0.0374213
r1690 1141 1593 15
r1691 1136 1628 10
r1692 1134 1136 0.7517
r1693 1134 1628 10
r1694 1132 1134 0.7517
r1695 1132 1628 10
r1696 1130 1132 0.7517
r1697 1130 1628 10
r1698 1128 1768 0.507397
r1699 1128 1130 0.501133
r1700 1128 1628 30
r1701 1124 1201 0.026159
r1702 1124 1199 0.0206178
r1703 1124 1674 0.0206178
r1704 1124 1593 15
r1705 1122 1632 10
r1706 1120 1122 0.752952
r1707 1120 1632 10
r1708 1118 1120 0.752952
r1709 1118 1632 10
r1710 1116 1118 0.752952
r1711 1116 1632 10
r1712 1114 1201 1.62117
r1713 1114 1116 0.502386
r1714 1114 1632 15
r1715 1107 1678 0.0206178
r1716 1097 1098 0.507267
r1717 1089 1110 0.0206178
r1718 1088 1089 0.291055
r1719 1081 1110 0.026159
r1720 1074 1109 0.026159
r1721 1071 1108 0.0206178
r1722 1070 1109 0.0206178
r1723 1062 1108 0.026159
r1724 1059 1107 0.0206178
r1725 1058 1108 0.0206178
r1726 1050 1107 0.026159
r1727 1048 1110 0.0206178
r1728 1047 1109 0.0206178
r1729 954 1664 10
r1730 952 954 0.7517
r1731 952 1664 10
r1732 950 952 0.7517
r1733 950 1664 10
r1734 948 950 0.7517
r1735 948 1664 10
r1736 946 1081 0.507397
r1737 946 948 0.501133
r1738 946 1664 30
r1739 944 1048 0.32016
r1740 944 1047 0.0374213
r1741 944 1593 15
r1742 939 1662 10
r1743 937 939 0.7517
r1744 937 1662 10
r1745 935 937 0.7517
r1746 935 1662 10
r1747 933 935 0.7517
r1748 933 1662 10
r1749 931 1074 0.507397
r1750 931 933 0.501133
r1751 931 1662 30
r1752 927 1071 0.128896
r1753 927 1593 10
r1754 925 1070 0.36174
r1755 925 927 0.332634
r1756 925 1593 30
r1757 923 1660 10
r1758 921 923 0.58388
r1759 921 1660 10
r1760 919 921 0.584852
r1761 919 1660 10
r1762 917 919 0.582909
r1763 917 1660 10
r1764 915 917 0.58388
r1765 915 1660 10
r1766 913 1062 0.868213
r1767 913 915 0.389577
r1768 913 1660 30
r1769 909 1059 0.128896
r1770 909 1593 10
r1771 907 1058 0.36174
r1772 907 909 0.332634
r1773 907 1593 30
r1774 905 1658 10
r1775 903 905 0.58388
r1776 903 1658 10
r1777 901 903 0.584852
r1778 901 1658 10
r1779 899 901 0.582909
r1780 899 1658 10
r1781 897 899 0.58388
r1782 897 1658 10
r1783 895 1050 0.868213
r1784 895 897 0.389577
r1785 895 1658 30
r1786 891 1099 0.026159
r1787 891 1097 0.0206178
r1788 891 1679 0.0206178
r1789 891 1593 15
r1790 889 1668 10
r1791 887 889 0.752952
r1792 887 1668 10
r1793 885 887 0.752952
r1794 885 1668 10
r1795 883 885 0.752952
r1796 883 1668 10
r1797 881 1099 1.62117
r1798 881 883 0.502386
r1799 881 1668 15
r1800 877 1090 0.026159
r1801 877 1088 0.0206178
r1802 877 1098 0.0206178
r1803 877 1593 15
r1804 875 1666 10
r1805 873 875 0.752952
r1806 873 1666 10
r1807 871 873 0.752952
r1808 871 1666 10
r1809 869 871 0.752952
r1810 869 1666 10
r1811 867 1090 1.62117
r1812 867 869 0.502386
r1813 867 1666 15
r1814 863 1805 0.026159
r1815 863 1804 0.0206178
r1816 863 1812 0.0206178
r1817 863 1593 15
r1818 861 1656 10
r1819 859 861 0.752952
r1820 859 1656 10
r1821 857 859 0.752952
r1822 857 1656 10
r1823 855 857 0.752952
r1824 855 1656 10
r1825 853 1805 1.62117
r1826 853 855 0.502386
r1827 853 1656 15
r1828 846 1675 0.0206178
r1829 836 837 0.507267
r1830 828 849 0.0206178
r1831 827 828 0.291055
r1832 820 849 0.026159
r1833 813 848 0.026159
r1834 810 847 0.0206178
r1835 809 848 0.0206178
r1836 801 847 0.026159
r1837 798 846 0.0206178
r1838 797 847 0.0206178
r1839 789 846 0.026159
r1840 787 849 0.0206178
r1841 786 848 0.0206178
r1842 693 1644 10
r1843 691 693 0.7517
r1844 691 1644 10
r1845 689 691 0.7517
r1846 689 1644 10
r1847 687 689 0.7517
r1848 687 1644 10
r1849 685 820 0.507397
r1850 685 687 0.501133
r1851 685 1644 30
r1852 683 787 0.32016
r1853 683 786 0.0374213
r1854 683 1593 15
r1855 678 1642 10
r1856 676 678 0.7517
r1857 676 1642 10
r1858 674 676 0.7517
r1859 674 1642 10
r1860 672 674 0.7517
r1861 672 1642 10
r1862 670 813 0.507397
r1863 670 672 0.501133
r1864 670 1642 30
r1865 666 810 0.128896
r1866 666 1593 10
r1867 664 809 0.36174
r1868 664 666 0.332634
r1869 664 1593 30
r1870 662 1640 10
r1871 660 662 0.58388
r1872 660 1640 10
r1873 658 660 0.584852
r1874 658 1640 10
r1875 656 658 0.582909
r1876 656 1640 10
r1877 654 656 0.58388
r1878 654 1640 10
r1879 652 801 0.868213
r1880 652 654 0.389577
r1881 652 1640 30
r1882 648 798 0.128896
r1883 648 1593 10
r1884 646 797 0.36174
r1885 646 648 0.332634
r1886 646 1593 30
r1887 644 1638 10
r1888 642 644 0.58388
r1889 642 1638 10
r1890 640 642 0.584852
r1891 640 1638 10
r1892 638 640 0.582909
r1893 638 1638 10
r1894 636 638 0.58388
r1895 636 1638 10
r1896 634 789 0.868213
r1897 634 636 0.389577
r1898 634 1638 30
r1899 630 838 0.026159
r1900 630 836 0.0206178
r1901 630 1676 0.0206178
r1902 630 1593 15
r1903 628 1648 10
r1904 626 628 0.752952
r1905 626 1648 10
r1906 624 626 0.752952
r1907 624 1648 10
r1908 622 624 0.752952
r1909 622 1648 10
r1910 620 838 1.62117
r1911 620 622 0.502386
r1912 620 1648 15
r1913 616 829 0.026159
r1914 616 827 0.0206178
r1915 616 837 0.0206178
r1916 616 1593 15
r1917 614 1646 10
r1918 612 614 0.752952
r1919 612 1646 10
r1920 610 612 0.752952
r1921 610 1646 10
r1922 608 610 0.752952
r1923 608 1646 10
r1924 606 829 1.62117
r1925 606 608 0.502386
r1926 606 1646 15
r1927 602 1788 0.026159
r1928 602 1783 0.0206178
r1929 602 1795 0.0206178
r1930 602 1593 15
r1931 600 1636 10
r1932 598 600 0.752952
r1933 598 1636 10
r1934 596 598 0.752952
r1935 596 1636 10
r1936 594 596 0.752952
r1937 594 1636 10
r1938 592 1788 1.62117
r1939 592 594 0.502386
r1940 592 1636 15
r1941 585 1672 0.0206178
r1942 575 576 0.507267
r1943 567 588 0.0206178
r1944 566 567 0.291055
r1945 559 588 0.026159
r1946 552 587 0.026159
r1947 549 586 0.0206178
r1948 548 587 0.0206178
r1949 540 586 0.026159
r1950 537 585 0.0206178
r1951 536 586 0.0206178
r1952 528 585 0.026159
r1953 526 588 0.0206178
r1954 525 587 0.0206178
r1955 432 1622 10
r1956 430 432 0.7517
r1957 430 1622 10
r1958 428 430 0.7517
r1959 428 1622 10
r1960 426 428 0.7517
r1961 426 1622 10
r1962 424 559 0.507397
r1963 424 426 0.501133
r1964 424 1622 30
r1965 422 526 0.32016
r1966 422 525 0.0374213
r1967 422 1593 15
r1968 417 1620 10
r1969 415 417 0.7517
r1970 415 1620 10
r1971 413 415 0.7517
r1972 413 1620 10
r1973 411 413 0.7517
r1974 411 1620 10
r1975 409 552 0.507397
r1976 409 411 0.501133
r1977 409 1620 30
r1978 405 549 0.128896
r1979 405 1593 10
r1980 403 548 0.36174
r1981 403 405 0.332634
r1982 403 1593 30
r1983 401 1618 10
r1984 399 401 0.58388
r1985 399 1618 10
r1986 397 399 0.584852
r1987 397 1618 10
r1988 395 397 0.582909
r1989 395 1618 10
r1990 393 395 0.58388
r1991 393 1618 10
r1992 391 540 0.868213
r1993 391 393 0.389577
r1994 391 1618 30
r1995 387 537 0.128896
r1996 387 1593 10
r1997 385 536 0.36174
r1998 385 387 0.332634
r1999 385 1593 30
r2000 383 1616 10
r2001 381 383 0.58388
r2002 381 1616 10
r2003 379 381 0.584852
r2004 379 1616 10
r2005 377 379 0.582909
r2006 377 1616 10
r2007 375 377 0.58388
r2008 375 1616 10
r2009 373 528 0.868213
r2010 373 375 0.389577
r2011 373 1616 30
r2012 369 577 0.026159
r2013 369 575 0.0206178
r2014 369 1673 0.0206178
r2015 369 1593 15
r2016 367 1626 10
r2017 365 367 0.752952
r2018 365 1626 10
r2019 363 365 0.752952
r2020 363 1626 10
r2021 361 363 0.752952
r2022 361 1626 10
r2023 359 577 1.62117
r2024 359 361 0.502386
r2025 359 1626 15
r2026 355 568 0.026159
r2027 355 566 0.0206178
r2028 355 576 0.0206178
r2029 355 1593 15
r2030 353 1624 10
r2031 351 353 0.752952
r2032 351 1624 10
r2033 349 351 0.752952
r2034 349 1624 10
r2035 347 349 0.752952
r2036 347 1624 10
r2037 345 568 1.62117
r2038 345 347 0.502386
r2039 345 1624 15
r2040 341 1757 0.026159
r2041 341 1752 0.0206178
r2042 341 1764 0.0206178
r2043 341 1593 15
r2044 339 1614 10
r2045 337 339 0.752952
r2046 337 1614 10
r2047 335 337 0.752952
r2048 335 1614 10
r2049 333 335 0.752952
r2050 333 1614 10
r2051 331 1757 1.62117
r2052 331 333 0.502386
r2053 331 1614 15
r2054 324 1670 0.0206178
r2055 314 315 0.507267
r2056 306 327 0.0206178
r2057 305 306 0.291055
r2058 298 327 0.026159
r2059 291 326 0.026159
r2060 288 325 0.0206178
r2061 287 326 0.0206178
r2062 279 325 0.026159
r2063 276 324 0.0206178
r2064 275 325 0.0206178
r2065 267 324 0.026159
r2066 265 327 0.0206178
r2067 264 326 0.0206178
r2068 171 1606 10
r2069 169 171 0.7517
r2070 169 1606 10
r2071 167 169 0.7517
r2072 167 1606 10
r2073 165 167 0.7517
r2074 165 1606 10
r2075 163 298 0.507397
r2076 163 165 0.501133
r2077 163 1606 30
r2078 161 265 0.32016
r2079 161 264 0.0374213
r2080 161 1593 15
r2081 156 1604 10
r2082 154 156 0.7517
r2083 154 1604 10
r2084 152 154 0.7517
r2085 152 1604 10
r2086 150 152 0.7517
r2087 150 1604 10
r2088 148 291 0.507397
r2089 148 150 0.501133
r2090 148 1604 30
r2091 144 288 0.128896
r2092 144 1593 10
r2093 142 287 0.36174
r2094 142 144 0.332634
r2095 142 1593 30
r2096 140 1602 10
r2097 138 140 0.58388
r2098 138 1602 10
r2099 136 138 0.584852
r2100 136 1602 10
r2101 134 136 0.582909
r2102 134 1602 10
r2103 132 134 0.58388
r2104 132 1602 10
r2105 130 279 0.868213
r2106 130 132 0.389577
r2107 130 1602 30
r2108 126 276 0.128896
r2109 126 1593 10
r2110 124 275 0.36174
r2111 124 126 0.332634
r2112 124 1593 30
r2113 122 1600 10
r2114 120 122 0.58388
r2115 120 1600 10
r2116 118 120 0.584852
r2117 118 1600 10
r2118 116 118 0.582909
r2119 116 1600 10
r2120 114 116 0.58388
r2121 114 1600 10
r2122 112 267 0.868213
r2123 112 114 0.389577
r2124 112 1600 30
r2125 108 316 0.026159
r2126 108 314 0.0206178
r2127 108 1671 0.0206178
r2128 108 1593 15
r2129 106 1610 10
r2130 104 106 0.752952
r2131 104 1610 10
r2132 102 104 0.752952
r2133 102 1610 10
r2134 100 102 0.752952
r2135 100 1610 10
r2136 98 316 1.62117
r2137 98 100 0.502386
r2138 98 1610 15
r2139 94 307 0.026159
r2140 94 305 0.0206178
r2141 94 315 0.0206178
r2142 94 1593 15
r2143 92 1608 10
r2144 90 92 0.752952
r2145 90 1608 10
r2146 88 90 0.752952
r2147 88 1608 10
r2148 86 88 0.752952
r2149 86 1608 10
r2150 84 307 1.62117
r2151 84 86 0.502386
r2152 84 1608 15
r2153 80 1736 0.026159
r2154 80 1731 0.0206178
r2155 80 1743 0.0206178
r2156 80 1593 15
r2157 78 1598 10
r2158 76 78 0.752952
r2159 76 1598 10
r2160 74 76 0.752952
r2161 74 1598 10
r2162 72 74 0.752952
r2163 72 1598 10
r2164 70 1736 1.62117
r2165 70 72 0.502386
r2166 70 1598 15
r2167 66 1784 0.128896
r2168 66 1593 10
r2169 64 66 0.498951
r2170 64 1593 10
r2171 62 1783 0.528057
r2172 62 64 0.332634
r2173 62 1593 15
r2174 60 1634 10
r2175 58 60 0.752952
r2176 58 1634 10
r2177 56 58 0.752952
r2178 56 1634 10
r2179 54 56 0.752952
r2180 54 1634 10
r2181 52 1776 1.62117
r2182 52 54 0.502386
r2183 52 1634 15
r2184 48 1753 0.128896
r2185 48 1593 10
r2186 46 48 0.498951
r2187 46 1593 10
r2188 44 1752 0.528057
r2189 44 46 0.332634
r2190 44 1593 15
r2191 42 1612 10
r2192 40 42 0.752952
r2193 40 1612 10
r2194 38 40 0.752952
r2195 38 1612 10
r2196 36 38 0.752952
r2197 36 1612 10
r2198 34 1745 1.62117
r2199 34 36 0.502386
r2200 34 1612 15
r2201 30 1732 0.128896
r2202 30 1593 10
r2203 28 30 0.498951
r2204 28 1593 10
r2205 26 1731 0.528057
r2206 26 28 0.332634
r2207 26 1593 15
r2208 24 1596 10
r2209 22 24 0.752952
r2210 22 1596 10
r2211 20 22 0.752952
r2212 20 1596 10
r2213 18 20 0.752952
r2214 18 1596 10
r2215 16 1724 1.62117
r2216 16 18 0.502386
r2217 16 1596 15
r2218 12 1715 0.026159
r2219 12 1713 0.0206178
r2220 12 1723 0.0206178
r2221 12 1593 15
r2222 10 1594 10
r2223 8 10 0.752952
r2224 8 1594 10
r2225 6 8 0.752952
r2226 6 1594 10
r2227 4 6 0.752952
r2228 4 1594 10
r2229 2 1715 1.62117
r2230 2 4 0.502386
r2231 2 1594 15
.ends

.subckt PM_FSM%IN_READY 4 6 10 12 15 17 22
c59 15 0 1.67882e-19
r60 19 22 5.42761
r61 15 22 25
r62 15 17 1.7
r63 6 12 236.024
r64 5 19 3.12463
r65 5 6 16.0034
r66 4 19 3.12463
r67 3 10 31.3709
r68 3 4 34.9744
.ends

.subckt PM_FSM%NET19 3 11 26 29 31 49 51 58 62 64 67 69 71 72 77 81 83 84 85 89
+ 91 96 101
c183 91 0 1.45812e-19
c184 85 0 1.89681e-19
c185 81 0 2.08747e-19
c186 71 0 1.34535e-19
c187 69 0 1.34535e-19
c188 58 0 1.45812e-19
c189 31 0 3.52481e-19
c190 29 0 5.47914e-20
r191 89 92 5.52511
r192 89 91 5.52511
r193 87 96 0.0419082
r194 87 101 9.17199
r195 84 101 0.12677
r196 83 84 1.7
r197 83 85 4.5841
r198 80 81 1.98848
r199 78 96 0.0961829
r200 77 80 0.110931
r201 77 78 1.7
r202 72 89 25
r203 71 72 1.7
r204 69 85 0.079027
r205 69 71 0.0862251
r206 67 81 0.0827788
r207 58 64 141.169
r208 58 92 16.0034
r209 55 62 129.829
r210 55 91 27.5556
r211 30 67 0.0530031
r212 30 31 1.7
r213 28 31 0.102894
r214 28 29 0.0611101
r215 26 31 0.101697
r216 26 27 0.0611101
r217 23 49 15
r218 20 23 0.502386
r219 20 49 10
r220 17 20 0.752952
r221 17 49 10
r222 14 17 0.752952
r223 14 49 10
r224 11 14 0.752952
r225 11 29 0.444756
r226 11 49 10
r227 7 27 0.556258
r228 7 51 10
r229 3 7 0.752952
r230 3 51 10
.ends

.subckt PM_FSM%NET18 3 11 26 29 31 49 51 58 62 64 67 69 71 72 77 78 81 83 84 87
+ 91 93 95 101 104
c182 95 0 1.34535e-19
c183 81 0 2.09208e-19
c184 72 0 9.79855e-20
c185 71 0 2.39797e-19
c186 69 0 1.45812e-19
c187 64 0 1.95189e-19
c188 58 0 1.34535e-19
c189 31 0 3.52481e-19
c190 29 0 5.47914e-20
r191 93 96 5.84936
r192 93 95 5.84936
r193 91 104 20.5803
r194 88 91 0.0479332
r195 88 101 0.286597
r196 86 87 3.89289
r197 84 104 0.13089
r198 83 86 0.0767021
r199 83 84 1.7
r200 80 81 2.04379
r201 78 101 0.138284
r202 77 80 0.0744677
r203 77 78 1.7
r204 72 93 25
r205 71 72 1.7
r206 69 87 0.0774177
r207 69 71 0.0832135
r208 67 81 0.0827788
r209 58 64 141.169
r210 58 96 16.0034
r211 55 62 129.829
r212 55 95 27.5556
r213 30 67 0.0530031
r214 30 31 1.7
r215 28 31 0.102894
r216 28 29 0.0611101
r217 26 31 0.101697
r218 26 27 0.0611101
r219 23 49 15
r220 20 23 0.502386
r221 20 49 10
r222 17 20 0.752952
r223 17 49 10
r224 14 17 0.752952
r225 14 49 10
r226 11 14 0.752952
r227 11 29 0.444756
r228 11 49 10
r229 7 27 0.556258
r230 7 51 10
r231 3 7 0.752952
r232 3 51 10
.ends

.subckt PM_FSM%NET15 3 11 26 29 31 49 51 56 58 62 64 65 69 71 72 77 78 81 83 84
+ 85 89 93 100 103
c152 81 0 4.39762e-19
c153 72 0 9.79855e-20
c154 71 0 9.39847e-20
c155 64 0 1.95189e-19
c156 62 0 1.91153e-19
c157 31 0 3.52183e-19
c158 29 0 1.39289e-19
r159 90 93 5.42761
r160 89 103 30.0755
r161 86 89 0.0479332
r162 86 100 0.559593
r163 84 103 0.129761
r164 83 84 1.7
r165 83 85 3.46191
r166 80 81 2.04379
r167 78 100 0.138884
r168 77 80 0.0738825
r169 77 78 1.7
r170 72 93 25
r171 71 72 1.7
r172 69 85 0.0726485
r173 69 71 0.0803689
r174 65 81 0.0751032
r175 58 64 141.169
r176 57 90 3.12463
r177 57 58 16.0034
r178 56 90 3.12463
r179 55 62 129.829
r180 55 56 27.5556
r181 30 65 0.0530031
r182 30 31 1.7
r183 28 31 0.102894
r184 28 29 0.0611101
r185 26 31 0.101697
r186 26 27 0.0611101
r187 23 49 15
r188 20 23 0.502386
r189 20 49 10
r190 17 20 0.752952
r191 17 49 10
r192 14 17 0.752952
r193 14 49 10
r194 11 14 0.752952
r195 11 29 0.444756
r196 11 49 10
r197 7 27 0.556258
r198 7 51 10
r199 3 7 0.752952
r200 3 51 10
.ends

.subckt PM_FSM%NET22 3 11 26 29 31 36 40 42 46 47 48 49 53 72 73 74 80 81 108
+ 112 114 116 119 121 123 124 128